@<TRIPOS>MOLECULE
RES
428 450 1 0 1
SMALL
NO_CHARGES
@<TRIPOS>CRYSIN
   25.9710    31.5140    18.2195    90.0000    90.0000    90.0000  1  1
@<TRIPOS>ATOM
       1 V            4.7104    20.3821     8.5436 V             1 RES     
       2 Nb           7.1674    26.5541     8.6076 Nb            1 RES     
       3 Te           8.4424     6.3711     8.5736 Te            1 RES     
       4 Mo           9.2164     2.8651     9.6906 Mo            1 RES     
       5 V           10.6874    26.0101     9.6536 V             1 RES     
       6 Mo          12.7964    23.1551     8.5676 Mo            1 RES     
       7 Nb          14.3574    26.4461     9.6906 Nb            1 RES     
       8 V            4.7184    23.9400     9.6366 V             1 RES     
       9 Mo          11.9824     5.5091     9.5006 Mo            1 RES     
      10 V           15.2814     7.0591     8.5436 V             1 RES     
      11 Nb           2.2524    14.2091     8.6096 Nb            1 RES     
      12 Mo          12.8244    13.2311     8.6076 Mo            1 RES     
      13 V           17.7394     0.8861     8.6096 V             1 RES     
      14 Mo           0.9754     7.7461     8.5756 Mo            1 RES     
      15 Nb          11.5484    19.6951     8.5736 Nb            1 RES     
      16 Mo          19.0164    21.0701     8.5756 Mo            1 RES     
      17 Mo           0.2024    11.2531     9.6916 Mo            1 RES     
      18 Te          10.7754    16.1891     9.6906 Te            1 RES     
      19 Mo          19.7894    24.5761     9.6926 Mo            1 RES     
      20 V           19.8764    14.7561     9.6536 V             1 RES     
      21 Mo           9.3044    12.6861     9.6526 Mo            1 RES     
      22 Mo           0.1154     1.4321     9.6546 Mo            1 RES     
      23 Mo          17.7684    17.6101     8.5676 Mo            1 RES     
      24 Nb           7.1954     9.8321     8.5676 Nb            1 RES     
      25 V            2.2244     4.2871     8.5686 V             1 RES     
      26 Te          16.2064    14.3201     9.6906 Te            1 RES     
      27 Mo           5.6354    13.1221     9.6906 Mo            1 RES     
      28 V            3.7854     0.9961     9.6906 V             1 RES     
      29 Mo           4.7004    16.8251     9.6366 Mo            1 RES     
      30 Mo          15.2734    10.6161     9.6356 Mo            1 RES     
      31 V           15.2914     3.5021     9.6366 V             1 RES     
      32 Mo          18.5794     8.6101     9.4996 Mo            1 RES     
      33 Mo           8.0084    18.8331     9.5006 Mo            1 RES     
      34 Mo           1.4124    21.9331     9.5006 Mo            1 RES     
      35 Mo          12.3144     2.2211     8.6546 Mo            1 RES     
      36 Mo          18.2494    11.8991     8.6536 Mo            1 RES     
      37 Mo           7.6774    15.5441     8.6546 Mo            1 RES     
      38 V            1.7424    25.2220     8.6546 V             1 RES     
      39 Mo          16.2544    23.4501     9.1546 Mo            1 RES     
      40 Mo          14.3094    17.3151     9.1536 Mo            1 RES     
      41 Mo           3.7364    10.1261     9.1536 Mo            1 RES     
      42 Mo           5.6824     3.9911     9.1536 Mo            1 RES     
      43 Mo           4.7104     7.0591     9.6196 Mo            1 RES     
      44 Mo          15.2824    20.3821     9.6186 Mo            1 RES     
      45 O            4.7104    20.3821     6.8716 O             1 RES     
      46 O            4.7104     7.0591    11.2876 O             1 RES     
      47 O            7.1564    26.5291     6.9346 O             1 RES     
      48 O            8.4494     6.3101     6.9026 O             1 RES     
      49 O            9.2144     2.8561    11.3696 O             1 RES     
      50 O           10.7134    26.0191    11.3316 O             1 RES     
      51 O           12.7534    23.2351     6.8976 O             1 RES     
      52 O           14.3144    26.4181    11.3676 O             1 RES     
      53 O           12.3184     2.2201     6.9436 O             1 RES     
      54 O            4.7304    23.9131    11.3146 O             1 RES     
      55 O           11.9984     5.5881    11.1766 O             1 RES     
      56 O           16.3954    23.6471    10.9746 O             1 RES     
      57 O           15.6954     5.2411     9.1156 O             1 RES     
      58 O           16.8174     2.5591     9.1316 O             1 RES     
      59 O            5.5404     0.8111     9.1506 O             1 RES     
      60 O           16.9564    21.3361     9.0216 O             1 RES     
      61 O           19.4824     1.6141     9.1446 O             1 RES     
      62 O           21.0864    26.0631     9.2496 O             1 RES     
      63 O           18.9774    22.9581     9.1566 O             1 RES     
      64 O            3.9594     5.3111     9.0066 O             1 RES     
      65 O            0.8304     3.1051     9.1786 O             1 RES     
      66 O            0.3904    23.7011     9.1346 O             1 RES     
      67 O           20.9474    21.0731     9.0176 O             1 RES     
      68 O            1.9284     0.6791     9.0606 O             1 RES     
      69 O            2.7664    23.4601     9.1396 O             1 RES     
      70 O            2.7894    20.8211     8.9536 O             1 RES     
      71 O            1.3154     5.9131     8.9746 O             1 RES     
      72 O            3.6034     2.8421     9.0696 O             1 RES     
      73 O            3.6614    25.6591     9.2496 O             1 RES     
      74 O            7.9354     1.6821     9.1046 O             1 RES     
      75 O           15.2814     7.0591     6.8716 O             1 RES     
      76 O           15.2824    20.3821    11.2876 O             1 RES     
      77 O            2.2644    14.2331     6.9356 O             1 RES     
      78 O           12.8364    13.2071     6.9336 O             1 RES     
      79 O           17.7284     0.9091     6.9356 O             1 RES     
      80 O            0.9684     7.8071     6.9046 O             1 RES     
      81 O           11.5424    19.6341     6.9026 O             1 RES     
      82 O           19.0234    21.1311     6.9046 O             1 RES     
      83 O            0.2024    11.2621    11.3706 O             1 RES     
      84 O           10.7764    16.1791    11.3696 O             1 RES     
      85 O           19.7894    24.5851    11.3716 O             1 RES     
      86 O           19.8504    14.7451    11.3316 O             1 RES     
      87 O            9.2784    12.6961    11.3306 O             1 RES     
      88 O            0.1414     1.4221    11.3316 O             1 RES     
      89 O           17.8124    17.5321     6.8976 O             1 RES     
      90 O            7.2384     9.9111     6.8976 O             1 RES     
      91 O            2.1794     4.2081     6.8976 O             1 RES     
      92 O           16.2474    14.3481    11.3666 O             1 RES     
      93 O            5.6784    13.0941    11.3666 O             1 RES     
      94 O            3.7454     1.0251    11.3666 O             1 RES     
      95 O           18.2454    11.9011     6.9426 O             1 RES     
      96 O            7.6724    15.5431     6.9436 O             1 RES     
      97 O            1.7464    25.2251     6.9426 O             1 RES     
      98 O            4.6874    16.8521    11.3146 O             1 RES     
      99 O           15.2614    10.5901    11.3136 O             1 RES     
     100 O           15.3044     3.5291    11.3146 O             1 RES     
     101 O           18.5624     8.5341    11.1756 O             1 RES     
     102 O            7.9934    18.9111    11.1766 O             1 RES     
     103 O            1.4284    21.8561    11.1766 O             1 RES     
     104 O           14.1684    17.1171    10.9726 O             1 RES     
     105 O            3.5964    10.3231    10.9736 O             1 RES     
     106 O            5.8234     3.7941    10.9736 O             1 RES     
     107 O           14.8684     8.8781     9.1156 O             1 RES     
     108 O            4.2964    18.5641     9.1156 O             1 RES     
     109 O            5.1234    22.2011     9.1156 O             1 RES     
     110 O           13.7464    11.5591     9.1326 O             1 RES     
     111 O            3.1744    15.8821     9.1316 O             1 RES     
     112 O            6.2454    24.8821     9.1326 O             1 RES     
     113 O            3.8804    13.3071     9.1526 O             1 RES     
     114 O           14.4524    14.1351     9.1506 O             1 RES     
     115 O           16.1114    26.6311     9.1526 O             1 RES     
     116 O           13.6074    19.4281     9.0206 O             1 RES     
     117 O            3.0354     8.0131     9.0216 O             1 RES     
     118 O            6.3844     6.1051     9.0206 O             1 RES     
     119 O           11.0814    12.5051     9.1426 O             1 RES     
     120 O            0.5104    14.9371     9.1446 O             1 RES     
     121 O            8.9104    25.8281     9.1436 O             1 RES     
     122 O            9.4774    14.7031     9.2486 O             1 RES     
     123 O           20.0494    12.7401     9.2486 O             1 RES     
     124 O           10.5144     1.3791     9.2496 O             1 RES     
     125 O           11.5864    17.8071     9.1546 O             1 RES     
     126 O            1.0144     9.6341     9.1566 O             1 RES     
     127 O            8.4044     4.4841     9.1546 O             1 RES     
     128 O            5.4594     8.8071     9.0056 O             1 RES     
     129 O           16.0324    18.6350     9.0056 O             1 RES     
     130 O           14.5324    22.1301     9.0066 O             1 RES     
     131 O            8.5894    11.0141     9.1766 O             1 RES     
     132 O           19.1614    16.4281     9.1786 O             1 RES     
     133 O           11.4024    24.3371     9.1776 O             1 RES     
     134 O            9.0304    17.0651     9.1356 O             1 RES     
     135 O           19.6014    10.3781     9.1346 O             1 RES     
     136 O           10.9614     3.7411     9.1356 O             1 RES     
     137 O            9.6174    19.6921     9.0156 O             1 RES     
     138 O           20.1884     7.7501     9.0176 O             1 RES     
     139 O           10.3744     6.3691     9.0156 O             1 RES     
     140 O            7.4914    13.4401     9.0586 O             1 RES     
     141 O           18.0634    14.0021     9.0606 O             1 RES     
     142 O           12.5004     0.1171     9.0596 O             1 RES     
     143 O            6.6534    17.3060     9.1426 O             1 RES     
     144 O           17.2254    10.1371     9.1386 O             1 RES     
     145 O           13.3384     3.9821     9.1426 O             1 RES     
     146 O            6.6314    19.9441     8.9536 O             1 RES     
     147 O           17.2024     7.4981     8.9536 O             1 RES     
     148 O           13.3604     6.6211     8.9536 O             1 RES     
     149 O            8.1034     8.2051     8.9736 O             1 RES     
     150 O           18.6764    19.2371     8.9746 O             1 RES     
     151 O           11.8884    21.5281     8.9736 O             1 RES     
     152 O            5.8164    11.2761     9.0696 O             1 RES     
     153 O           16.3884    16.1661     9.0686 O             1 RES     
     154 O           14.1754    24.6001     9.0696 O             1 RES     
     155 O            5.7594    15.1071     9.2496 O             1 RES     
     156 O           16.3314    12.3361     9.2486 O             1 RES     
     157 O           14.2334     1.7831     9.2496 O             1 RES     
     158 O            1.4844    12.4361     9.1076 O             1 RES     
     159 O           12.0564    15.0051     9.1046 O             1 RES     
     160 O           18.2954    25.8581     9.0986 O             1 RES     
     161 Nb           4.7104    20.3821    12.5468 Nb            1 RES     
     162 Mo           7.1674    26.5541    12.6108 Mo            1 RES     
     163 V            8.4424     6.3711    12.5768 V             1 RES     
     164 Nb           9.2164     2.8651    13.6938 Nb            1 RES     
     165 V           10.6874    26.0101    13.6568 V             1 RES     
     166 Nb          12.7964    23.1551    12.5708 Nb            1 RES     
     167 Mo          14.3574    26.4461    13.6938 Mo            1 RES     
     168 Te           4.7184    23.9400    13.6398 Te            1 RES     
     169 V           11.9824     5.5091    13.5038 V             1 RES     
     170 Mo          15.2814     7.0591    12.5468 Mo            1 RES     
     171 Mo           2.2524    14.2091    12.6128 Mo            1 RES     
     172 Mo          12.8244    13.2311    12.6108 Mo            1 RES     
     173 V           17.7394     0.8861    12.6128 V             1 RES     
     174 Mo           0.9754     7.7461    12.5788 Mo            1 RES     
     175 V           11.5484    19.6951    12.5768 V             1 RES     
     176 Mo          19.0164    21.0701    12.5788 Mo            1 RES     
     177 Mo           0.2024    11.2531    13.6948 Mo            1 RES     
     178 Mo          10.7754    16.1891    13.6938 Mo            1 RES     
     179 Mo          19.7894    24.5761    13.6958 Mo            1 RES     
     180 V           19.8764    14.7561    13.6568 V             1 RES     
     181 Mo           9.3044    12.6861    13.6558 Mo            1 RES     
     182 Mo           0.1154     1.4321    13.6578 Mo            1 RES     
     183 V           17.7684    17.6101    12.5708 V             1 RES     
     184 V            7.1954     9.8321    12.5708 V             1 RES     
     185 V            2.2244     4.2871    12.5718 V             1 RES     
     186 Mo          16.2064    14.3201    13.6938 Mo            1 RES     
     187 Mo           5.6354    13.1221    13.6938 Mo            1 RES     
     188 Nb           3.7854     0.9961    13.6938 Nb            1 RES     
     189 V            4.7004    16.8251    13.6398 V             1 RES     
     190 Mo          15.2734    10.6161    13.6388 Mo            1 RES     
     191 Mo          15.2914     3.5021    13.6398 Mo            1 RES     
     192 Mo          18.5794     8.6101    13.5028 Mo            1 RES     
     193 Mo           8.0084    18.8331    13.5038 Mo            1 RES     
     194 Mo           1.4124    21.9331    13.5038 Mo            1 RES     
     195 Nb          12.3144     2.2211    12.6578 Nb            1 RES     
     196 V           18.2494    11.8991    12.6568 V             1 RES     
     197 Te           7.6774    15.5441    12.6578 Te            1 RES     
     198 Mo           1.7424    25.2220    12.6578 Mo            1 RES     
     199 Mo          16.2544    23.4501    13.1578 Mo            1 RES     
     200 Mo          14.3094    17.3151    13.1568 Mo            1 RES     
     201 Mo           3.7364    10.1261    13.1568 Mo            1 RES     
     202 Mo           5.6824     3.9911    13.1568 Mo            1 RES     
     203 Mo           4.7104     7.0591    13.6228 Mo            1 RES     
     204 Mo          15.2824    20.3821    13.6218 Mo            1 RES     
     205 O            4.7104    20.3821    10.8748 O             1 RES     
     206 O            4.7104     7.0591    15.2908 O             1 RES     
     207 O            7.1564    26.5291    10.9378 O             1 RES     
     208 O            8.4494     6.3101    10.9058 O             1 RES     
     209 O            9.2144     2.8561    15.3728 O             1 RES     
     210 O           10.7134    26.0191    15.3348 O             1 RES     
     211 O           12.7534    23.2351    10.9008 O             1 RES     
     212 O           14.3144    26.4181    15.3708 O             1 RES     
     213 O           12.3184     2.2201    10.9468 O             1 RES     
     214 O            4.7304    23.9131    15.3178 O             1 RES     
     215 O           11.9984     5.5881    15.1798 O             1 RES     
     216 O           16.3954    23.6471    14.9778 O             1 RES     
     217 O           15.6954     5.2411    13.1188 O             1 RES     
     218 O           16.8174     2.5591    13.1348 O             1 RES     
     219 O            5.5404     0.8111    13.1538 O             1 RES     
     220 O           16.9564    21.3361    13.0248 O             1 RES     
     221 O           19.4824     1.6141    13.1478 O             1 RES     
     222 O           21.0864    26.0631    13.2528 O             1 RES     
     223 O           18.9774    22.9581    13.1598 O             1 RES     
     224 O            3.9594     5.3111    13.0098 O             1 RES     
     225 O            0.8304     3.1051    13.1818 O             1 RES     
     226 O            0.3904    23.7011    13.1378 O             1 RES     
     227 O           20.9474    21.0731    13.0208 O             1 RES     
     228 O            1.9284     0.6791    13.0638 O             1 RES     
     229 O            2.7664    23.4601    13.1428 O             1 RES     
     230 O            2.7894    20.8211    12.9568 O             1 RES     
     231 O            1.3154     5.9131    12.9778 O             1 RES     
     232 O            3.6034     2.8421    13.0728 O             1 RES     
     233 O            3.6614    25.6591    13.2528 O             1 RES     
     234 O            7.9354     1.6821    13.1078 O             1 RES     
     235 O           15.2814     7.0591    10.8748 O             1 RES     
     236 O           15.2824    20.3821    15.2908 O             1 RES     
     237 O            2.2644    14.2331    10.9388 O             1 RES     
     238 O           12.8364    13.2071    10.9368 O             1 RES     
     239 O           17.7284     0.9091    10.9388 O             1 RES     
     240 O            0.9684     7.8071    10.9078 O             1 RES     
     241 O           11.5424    19.6341    10.9058 O             1 RES     
     242 O           19.0234    21.1311    10.9078 O             1 RES     
     243 O            0.2024    11.2621    15.3738 O             1 RES     
     244 O           10.7764    16.1791    15.3728 O             1 RES     
     245 O           19.7894    24.5851    15.3748 O             1 RES     
     246 O           19.8504    14.7451    15.3348 O             1 RES     
     247 O            9.2784    12.6961    15.3338 O             1 RES     
     248 O            0.1414     1.4221    15.3348 O             1 RES     
     249 O           17.8124    17.5321    10.9008 O             1 RES     
     250 O            7.2384     9.9111    10.9008 O             1 RES     
     251 O            2.1794     4.2081    10.9008 O             1 RES     
     252 O           16.2474    14.3481    15.3698 O             1 RES     
     253 O            5.6784    13.0941    15.3698 O             1 RES     
     254 O            3.7454     1.0251    15.3698 O             1 RES     
     255 O           18.2454    11.9011    10.9458 O             1 RES     
     256 O            7.6724    15.5431    10.9468 O             1 RES     
     257 O            1.7464    25.2251    10.9458 O             1 RES     
     258 O            4.6874    16.8521    15.3178 O             1 RES     
     259 O           15.2614    10.5901    15.3168 O             1 RES     
     260 O           15.3044     3.5291    15.3178 O             1 RES     
     261 O           18.5624     8.5341    15.1788 O             1 RES     
     262 O            7.9934    18.9111    15.1798 O             1 RES     
     263 O            1.4284    21.8561    15.1798 O             1 RES     
     264 O           14.1684    17.1171    14.9758 O             1 RES     
     265 O            3.5964    10.3231    14.9768 O             1 RES     
     266 O            5.8234     3.7941    14.9768 O             1 RES     
     267 O           14.8684     8.8781    13.1188 O             1 RES     
     268 O            4.2964    18.5641    13.1188 O             1 RES     
     269 O            5.1234    22.2011    13.1188 O             1 RES     
     270 O           13.7464    11.5591    13.1358 O             1 RES     
     271 O            3.1744    15.8821    13.1348 O             1 RES     
     272 O            6.2454    24.8821    13.1358 O             1 RES     
     273 O            3.8804    13.3071    13.1558 O             1 RES     
     274 O           14.4524    14.1351    13.1538 O             1 RES     
     275 O           16.1114    26.6311    13.1558 O             1 RES     
     276 O           13.6074    19.4281    13.0238 O             1 RES     
     277 O            3.0354     8.0131    13.0248 O             1 RES     
     278 O            6.3844     6.1051    13.0238 O             1 RES     
     279 O           11.0814    12.5051    13.1458 O             1 RES     
     280 O            0.5104    14.9371    13.1478 O             1 RES     
     281 O            8.9104    25.8281    13.1468 O             1 RES     
     282 O            9.4774    14.7031    13.2518 O             1 RES     
     283 O           20.0494    12.7401    13.2518 O             1 RES     
     284 O           10.5144     1.3791    13.2528 O             1 RES     
     285 O           11.5864    17.8071    13.1578 O             1 RES     
     286 O            1.0144     9.6341    13.1598 O             1 RES     
     287 O            8.4044     4.4841    13.1578 O             1 RES     
     288 O            5.4594     8.8071    13.0088 O             1 RES     
     289 O           16.0324    18.6350    13.0088 O             1 RES     
     290 O           14.5324    22.1301    13.0098 O             1 RES     
     291 O            8.5894    11.0141    13.1798 O             1 RES     
     292 O           19.1614    16.4281    13.1818 O             1 RES     
     293 O           11.4024    24.3371    13.1808 O             1 RES     
     294 O            9.0304    17.0651    13.1388 O             1 RES     
     295 O           19.6014    10.3781    13.1378 O             1 RES     
     296 O           10.9614     3.7411    13.1388 O             1 RES     
     297 O            9.6174    19.6921    13.0188 O             1 RES     
     298 O           20.1884     7.7501    13.0208 O             1 RES     
     299 O           10.3744     6.3691    13.0188 O             1 RES     
     300 O            7.4914    13.4401    13.0618 O             1 RES     
     301 O           18.0634    14.0021    13.0638 O             1 RES     
     302 O           12.5004     0.1171    13.0628 O             1 RES     
     303 O            6.6534    17.3060    13.1458 O             1 RES     
     304 O           17.2254    10.1371    13.1418 O             1 RES     
     305 O           13.3384     3.9821    13.1458 O             1 RES     
     306 O            6.6314    19.9441    12.9568 O             1 RES     
     307 O           17.2024     7.4981    12.9568 O             1 RES     
     308 O           13.3604     6.6211    12.9568 O             1 RES     
     309 O            8.1034     8.2051    12.9768 O             1 RES     
     310 O           18.6764    19.2371    12.9778 O             1 RES     
     311 O           11.8884    21.5281    12.9768 O             1 RES     
     312 O            5.8164    11.2761    13.0728 O             1 RES     
     313 O           16.3884    16.1661    13.0718 O             1 RES     
     314 O           14.1754    24.6001    13.0728 O             1 RES     
     315 O            5.7594    15.1071    13.2528 O             1 RES     
     316 O           16.3314    12.3361    13.2518 O             1 RES     
     317 O           14.2334     1.7831    13.2528 O             1 RES     
     318 O            1.4844    12.4361    13.1108 O             1 RES     
     319 O           12.0564    15.0051    13.1078 O             1 RES     
     320 O           18.2954    25.8581    13.1018 O             1 RES     
     321 C            5.6683    22.0990    20.0413 C             1 RES     
     322 C            5.6409    23.4941    20.0380 C             1 RES     
     323 C            4.4185    24.1662    20.0562 C             1 RES     
     324 C            3.2257    23.4456    20.0367 C             1 RES     
     325 C            3.2529    22.0504    20.0268 C             1 RES     
     326 C            4.4754    21.3781    20.0407 C             1 RES     
     327 H            6.6206    21.5751    20.0471 H             1 RES     
     328 H            6.5702    24.0561    20.0223 H             1 RES     
     329 H            4.3970    25.2527    20.0859 H             1 RES     
     330 H            2.2736    23.9698    20.0285 H             1 RES     
     331 H            2.3235    21.4888    20.0128 H             1 RES     
     332 H            4.4968    20.2912    20.0479 H             1 RES     
     333 C           15.1272    15.9565    19.1062 C             1 RES     
     334 C           13.9136    16.6454    19.1029 C             1 RES     
     335 C           12.7116    15.9375    19.1211 C             1 RES     
     336 C           12.7222    14.5439    19.1016 C             1 RES     
     337 C           13.9357    13.8549    19.0917 C             1 RES     
     338 C           15.1379    14.5627    19.1056 C             1 RES     
     339 H           16.0639    16.5078    19.1120 H             1 RES     
     340 H           13.9050    17.7313    19.0872 H             1 RES     
     341 H           11.7664    16.4738    19.1509 H             1 RES     
     342 H           11.7852    13.9930    19.0934 H             1 RES     
     343 H           13.9440    12.7690    19.0777 H             1 RES     
     344 H           16.0834    14.0262    19.1128 H             1 RES     
     345 C           19.1356     4.3479    20.0373 C             1 RES     
     346 C           19.1320     5.7433    20.0340 C             1 RES     
     347 C           17.9212     6.4361    20.0522 C             1 RES     
     348 C           16.7163     5.7359    20.0327 C             1 RES     
     349 C           16.7197     4.3405    20.0228 C             1 RES     
     350 C           17.9306     3.6474    20.0367 C             1 RES     
     351 H           20.0789     3.8078    20.0431 H             1 RES     
     352 H           20.0707     6.2893    20.0183 H             1 RES     
     353 H           17.9182     7.5228    20.0820 H             1 RES     
     354 H           15.7732     6.2763    20.0245 H             1 RES     
     355 H           15.7809     3.7947    20.0088 H             1 RES     
     356 H           17.9335     2.5603    20.0439 H             1 RES     
     357 C           16.7314    20.2334    19.1068 C             1 RES     
     358 C           17.9426    19.5403    19.1035 C             1 RES     
     359 C           19.1470    20.2442    19.1217 C             1 RES     
     360 C           19.1412    21.6377    19.1021 C             1 RES     
     361 C           17.9301    22.3308    19.0923 C             1 RES     
     362 C           16.7254    21.6271    19.1062 C             1 RES     
     363 H           15.7928    19.6852    19.1126 H             1 RES     
     364 H           17.9475    18.4544    19.0878 H             1 RES     
     365 H           20.0903    19.7046    19.1514 H             1 RES     
     366 H           20.0800    22.1855    19.0940 H             1 RES     
     367 H           17.9254    23.4168    19.0783 H             1 RES     
     368 H           15.7817    22.1669    19.1134 H             1 RES     
     369 C            9.6953    10.9243    20.0465 C             1 RES     
     370 C            8.7694     9.8803    20.0432 C             1 RES     
     371 C            9.2121     8.5574    20.0614 C             1 RES     
     372 C           10.5775     8.2783    20.0419 C             1 RES     
     373 C           11.5035     9.3222    20.0320 C             1 RES     
     374 C           11.0609    10.6452    20.0459 C             1 RES     
     375 H            9.3506    11.9551    20.0523 H             1 RES     
     376 H            7.7054    10.0974    20.0275 H             1 RES     
     377 H            8.4911     7.7443    20.0912 H             1 RES     
     378 H           10.9218     7.2473    20.0337 H             1 RES     
     379 H           12.5675     9.1047    20.0180 H             1 RES     
     380 H           11.7821    11.4586    20.0531 H             1 RES     
     381 C           12.5418    22.2585    20.0409 C             1 RES     
     382 C           12.8778    23.6129    20.0376 C             1 RES     
     383 C           11.8718    24.5794    20.0558 C             1 RES     
     384 C           10.5328    24.1933    20.0363 C             1 RES     
     385 C           10.1967    22.8390    20.0264 C             1 RES     
     386 C           11.2026    21.8722    20.0403 C             1 RES     
     387 H           13.3253    21.5052    20.0467 H             1 RES     
     388 H           13.9211    23.9141    20.0219 H             1 RES     
     389 H           12.1333    25.6342    20.0856 H             1 RES     
     390 H            9.7495    24.9469    20.0281 H             1 RES     
     391 H            9.1533    22.5380    20.0124 H             1 RES     
     392 H           10.9410    20.8170    20.0475 H             1 RES     
     393 C            6.3099     3.6289    19.1069 C             1 RES     
     394 C            6.8126     2.3271    19.1036 C             1 RES     
     395 C            8.1911     2.1135    19.1218 C             1 RES     
     396 C            9.0657     3.1985    19.1023 C             1 RES     
     397 C            8.5630     4.5003    19.0924 C             1 RES     
     398 C            7.1844     4.7141    19.1063 C             1 RES     
     399 H            5.2358     3.7956    19.1128 H             1 RES     
     400 H            6.1314     1.4814    19.0880 H             1 RES     
     401 H            8.5827     1.0998    19.1516 H             1 RES     
     402 H           10.1396     3.0314    19.0941 H             1 RES     
     403 H            9.2445     5.3459    19.0785 H             1 RES     
     404 H            6.7926     5.7282    19.1136 H             1 RES     
     405 C            3.9088    14.6196    19.2518 C             1 RES     
     406 C            4.8688    15.6324    19.2485 C             1 RES     
     407 C            4.4700    16.9691    19.2667 C             1 RES     
     408 C            3.1147    17.2933    19.2471 C             1 RES     
     409 C            2.1546    16.2806    19.2373 C             1 RES     
     410 C            2.5532    14.9437    19.2512 C             1 RES     
     411 H            4.2193    13.5779    19.2576 H             1 RES     
     412 H            5.9250    15.3802    19.2328 H             1 RES     
     413 H            5.2175    17.7580    19.2964 H             1 RES     
     414 H            2.8047    18.3351    19.2390 H             1 RES     
     415 H            1.0984    16.5331    19.2233 H             1 RES     
     416 H            1.8055    14.1545    19.2584 H             1 RES     
     417 C            2.1498     9.2172    19.1089 C             1 RES     
     418 C            2.5382     7.8769    19.1056 C             1 RES     
     419 C            3.8931     7.5450    19.1238 C             1 RES     
     420 C            4.8581     8.5504    19.1042 C             1 RES     
     421 C            4.4698     9.8908    19.0944 C             1 RES     
     422 C            3.1148    10.2229    19.1083 C             1 RES     
     423 H            1.0941     9.4761    19.1147 H             1 RES     
     424 H            1.7865     7.0932    19.0899 H             1 RES     
     425 H            4.1957     6.5013    19.1535 H             1 RES     
     426 H            5.9136     8.2911    19.0961 H             1 RES     
     427 H            5.2217    10.6743    19.0804 H             1 RES     
     428 H            2.8121    11.2670    19.1155 H             1 RES     
@<TRIPOS>BOND
       1      104       40 1
       2      240      174 1
       3        6      130 1
       4      381      382 1
       5      125       18 1
       6       58       13 1
       7      345      350 1
       8      409      415 1
       9      122       21 1
      10      393      399 1
      11      319      178 1
      12       82       16 1
      13       12      114 1
      14      300      187 1
      15      194      263 1
      16      280      171 1
      17       86       20 1
      18      298      192 1
      19      303      189 1
      20      187      253 1
      21       63       19 1
      22       60       44 1
      23      163      278 1
      24      188      254 1
      25      338      344 1
      26      289      204 1
      27      369      375 1
      28      394      400 1
      29      270      172 1
      30       11      113 1
      31      203      206 1
      32       10      148 1
      33        9      145 1
      34      325      326 1
      35        6      151 1
      36      198      257 1
      37      370      376 1
      38      395      401 1
      39      288      184 1
      40        8       69 1
      41       23       89 1
      42      310      176 1
      43      360      361 1
      44      385      386 1
      45      192      261 1
      46      164      287 1
      47      239      173 1
      48      371      377 1
      49      396      402 1
      50      116       44 1
      51      203      224 1
      52      308      169 1
      53      191      218 1
      54      269      168 1
      55        9      139 1
      56      244      178 1
      57       30      156 1
      58      132       20 1
      59      405      406 1
      60      369      370 1
      61      394      395 1
      62       42      106 1
      63      187      312 1
      64      190      270 1
      65      311      166 1
      66       29      155 1
      67      275      167 1
      68      325      331 1
      69      350      356 1
      70      203      277 1
      71       29      143 1
      72      196      255 1
      73      290      204 1
      74      362      368 1
      75      407      408 1
      76      188      219 1
      77      417      422 1
      78      319      172 1
      79      309      184 1
      80      186      313 1
      81      228      182 1
      82       23      150 1
      83       35       53 1
      84      160       19 1
      85      223      179 1
      86      161      205 1
      87        1      146 1
      88      409      410 1
      89      373      374 1
      90      408      414 1
      91      281      165 1
      92      125       15 1
      93      305      169 1
      94       23      129 1
      95      296      169 1
      96      116       15 1
      97      313      183 1
      98        4      124 1
      99      123       20 1
     100      407      413 1
     101      163      299 1
     102       34       66 1
     103      321      327 1
     104      346      352 1
     105       12      119 1
     106       27       93 1
     107        3      127 1
     108      333      338 1
     109      161      306 1
     110      162      207 1
     111      304      192 1
     112      276      175 1
     113      305      191 1
     114      277      174 1
     115      162      281 1
     116        4       49 1
     117      321      322 1
     118      346      347 1
     119      286      177 1
     120      294      193 1
     121      293      165 1
     122       31       57 1
     123      232      185 1
     124       71       14 1
     125      202      266 1
     126      220      176 1
     127      324      325 1
     128      349      350 1
     129      419      425 1
     130      151       15 1
     131      408      409 1
     132      293      166 1
     133      164      296 1
     134      306      193 1
     135       26      153 1
     136      335      336 1
     137        9      148 1
     138      222      179 1
     139      163      208 1
     140       11      158 1
     141       27      140 1
     142      307      170 1
     143      297      175 1
     144      204      276 1
     145       32      138 1
     146       22       65 1
     147      164      209 1
     148      186      252 1
     149       12      110 1
     150      227      176 1
     151        1       45 1
     152      337      338 1
     153       25       71 1
     154      191      217 1
     155      238      172 1
     156        8      112 1
     157      334      340 1
     158      283      180 1
     159      357      362 1
     160       22       68 1
     161      267      170 1
     162        4      136 1
     163       26      114 1
     164      335      341 1
     165      359      365 1
     166      384      390 1
     167       31      100 1
     168       34       69 1
     169       29      111 1
     170      282      181 1
     171      292      180 1
     172      345      346 1
     173       31      157 1
     174       96       37 1
     175      307      192 1
     176      359      360 1
     177      384      385 1
     178      422      428 1
     179      337      343 1
     180      295      192 1
     181      393      398 1
     182      119       21 1
     183       33      134 1
     184       97       38 1
     185      286      174 1
     186       30      107 1
     187        3      149 1
     188        2      121 1
     189      186      316 1
     190       11      111 1
     191       83       17 1
     192       56       39 1
     193       27      152 1
     194      237      171 1
     195        5       50 1
     196      242      176 1
     197       36       95 1
     198      161      230 1
     199      247      181 1
     200        9       55 1
     201      419      420 1
     202      297      193 1
     203      285      175 1
     204       32      147 1
     205       29       98 1
     206      282      178 1
     207      229      168 1
     208       11      120 1
     209      201      265 1
     210       12      159 1
     211      117       14 1
     212       26      141 1
     213      131       21 1
     214      126       17 1
     215      197      256 1
     216      372      378 1
     217      397      403 1
     218       28       68 1
     219        7      154 1
     220       64       43 1
     221       61       13 1
     222      188      232 1
     223       33      137 1
     224        9      136 1
     225      358      359 1
     226      383      384 1
     227      243      177 1
     228       31       58 1
     229      241      175 1
     230      372      373 1
     231      397      398 1
     232      314      166 1
     233       32      144 1
     234      164      234 1
     235       10      147 1
     236      117       43 1
     237       10      107 1
     238      118       43 1
     239        1      108 1
     240       31      145 1
     241        2       47 1
     242      336      337 1
     243      406      412 1
     244       33      143 1
     245      200      264 1
     246      381      386 1
     247      294      178 1
     248        5      133 1
     249        8       73 1
     250      130       44 1
     251      417      423 1
     252      203      278 1
     253      251      185 1
     254        1       70 1
     255      418      424 1
     256      161      269 1
     257      204      236 1
     258        2      112 1
     259       32      135 1
     260      199      216 1
     261       24      131 1
     262      191      317 1
     263      190      267 1
     264      334      335 1
     265      421      427 1
     266      312      184 1
     267      189      271 1
     268       30      144 1
     269      129       44 1
     270      289      183 1
     271       34      103 1
     272      223      176 1
     273      189      268 1
     274        7      115 1
     275      204      220 1
     276        4       74 1
     277      246      180 1
     278       34       70 1
     279       24      149 1
     280      321      326 1
     281      371      372 1
     282      396      397 1
     283        6      154 1
     284      410      416 1
     285      224      185 1
     286       30      110 1
     287      288      203 1
     288      211      166 1
     289       26       92 1
     290       41      105 1
     291      421      422 1
     292      225      182 1
     293      188      228 1
     294      324      330 1
     295      349      355 1
     296      405      410 1
     297        3      118 1
     298      323      324 1
     299      348      349 1
     300      369      374 1
     301        8      109 1
     302       24      128 1
     303      235      170 1
     304      314      167 1
     305      332      326 1
     306      318      171 1
     307      215      169 1
     308        8       54 1
     309      292      183 1
     310      320      179 1
     311       28       72 1
     312      310      183 1
     313      406      407 1
     314       76       44 1
     315       10       75 1
     316      274      172 1
     317       79       13 1
     318      134       18 1
     319        4      127 1
     320      190      316 1
     321        3      139 1
     322      304      190 1
     323      322      328 1
     324      347      353 1
     325      195      213 1
     326       28       59 1
     327      417      418 1
     328      137       15 1
     329       25       64 1
     330      231      185 1
     331      212      167 1
     332      323      329 1
     333      348      354 1
     334       29      108 1
     335      161      268 1
     336      272      168 1
     337       62       19 1
     338       23      132 1
     339       23      153 1
     340      249      183 1
     341      308      170 1
     342      186      274 1
     343      291      181 1
     344      299      169 1
     345        3       48 1
     346       33      146 1
     347      290      166 1
     348      303      193 1
     349      301      186 1
     350      285      178 1
     351        7       52 1
     352      122       18 1
     353      217      170 1
     354      273      171 1
     355        6      133 1
     356       12       78 1
     357      158       17 1
     358      250      184 1
     359      361      362 1
     360      357      358 1
     361      382      383 1
     362       24      152 1
     363      271      171 1
     364      164      284 1
     365      210      165 1
     366       32      101 1
     367      187      315 1
     368       11       77 1
     369      190      259 1
     370       43       46 1
     371      301      180 1
     372      405      411 1
     373      189      315 1
     374      194      229 1
     375      194      230 1
     376      360      366 1
     377      385      391 1
     378       28       94 1
     379      233      168 1
     380      194      226 1
     381      163      309 1
     382       27      113 1
     383      231      174 1
     384      345      351 1
     385       60       16 1
     386       22       88 1
     387      225      185 1
     388      193      262 1
     389      163      287 1
     390      333      339 1
     391      361      367 1
     392      386      392 1
     393      418      419 1
     394       27      155 1
     395      221      173 1
     396      150       16 1
     397       80       14 1
     398       25       65 1
     399      333      334 1
     400       81       15 1
     401       87       21 1
     402      140       21 1
     403        5      121 1
     404       63       16 1
     405       33      102 1
     406       67       16 1
     407       26      156 1
     408      291      184 1
     409      279      181 1
     410      159       18 1
     411       84       18 1
     412      191      260 1
     413       30       99 1
     414       25       91 1
     415      189      258 1
     416      248      182 1
     417      336      342 1
     418      420      421 1
     419      370      371 1
     420      395      396 1
     421      214      168 1
     422       85       19 1
     423      162      272 1
     424      381      387 1
     425      218      173 1
     426        6       51 1
     427      187      273 1
     428       25       72 1
     429      245      179 1
     430      300      181 1
     431      126       14 1
     432      393      394 1
     433      311      175 1
     434      141       20 1
     435      357      363 1
     436      382      388 1
     437       10       57 1
     438        1      109 1
     439      373      379 1
     440      398      404 1
     441      279      172 1
     442      128       43 1
     443      322      323 1
     444      347      348 1
     445       24       90 1
     446      318      177 1
     447      358      364 1
     448      383      389 1
     449      420      426 1
     450      374      380 1
@<TRIPOS>SUBSTRUCTURE
       1 RES             1 RESIDUE    0 **** ROOT      0