@<TRIPOS>MOLECULE
RES
480 482 1 0 1
SMALL
NO_CHARGES
@<TRIPOS>CRYSIN
   25.9710    31.5140    20.6480    90.0000    90.0000    90.0000  1  1
@<TRIPOS>ATOM
       1 Te           4.6829    20.3130     8.5128 Te            1 RES     
       2 Mo           7.1399    26.4850     8.5768 Mo            1 RES     
       3 Mo           8.4149     6.3020     8.5428 Mo            1 RES     
       4 Mo           9.1889     2.7960     9.6598 Mo            1 RES     
       5 V           10.6599    25.9410     9.6228 V             1 RES     
       6 Te          12.7689    23.0860     8.5368 Te            1 RES     
       7 Mo          14.3299    26.3770     9.6598 Mo            1 RES     
       8 Mo           4.6909    23.8710     9.6058 Mo            1 RES     
       9 Mo          11.9549     5.4400     9.4698 Mo            1 RES     
      10 Mo          15.2539     6.9900     8.5128 Mo            1 RES     
      11 Mo           2.2249    14.1400     8.5788 Mo            1 RES     
      12 Mo          12.7969    13.1620     8.5768 Mo            1 RES     
      13 Mo          17.7119     0.8170     8.5788 Mo            1 RES     
      14 Mo           0.9479     7.6770     8.5448 Mo            1 RES     
      15 Mo          11.5209    19.6260     8.5428 Mo            1 RES     
      16 Mo          18.9889    21.0010     8.5448 Mo            1 RES     
      17 Mo           0.1749    11.1840     9.6608 Mo            1 RES     
      18 Mo          10.7479    16.1200     9.6598 Mo            1 RES     
      19 Mo          19.7619    24.5070     9.6618 Mo            1 RES     
      20 V           19.8489    14.6870     9.6228 V             1 RES     
      21 Mo           9.2769    12.6170     9.6218 Mo            1 RES     
      22 Nb           0.0879     1.3630     9.6238 Nb            1 RES     
      23 Mo          17.7409    17.5410     8.5368 Mo            1 RES     
      24 Mo           7.1679     9.7630     8.5368 Mo            1 RES     
      25 Mo           2.1969     4.2180     8.5378 Mo            1 RES     
      26 Mo          16.1789    14.2510     9.6598 Mo            1 RES     
      27 Mo           5.6079    13.0530     9.6598 Mo            1 RES     
      28 Mo           3.7579     0.9270     9.6598 Mo            1 RES     
      29 Mo           4.6729    16.7560     9.6058 Mo            1 RES     
      30 Te          15.2459    10.5470     9.6048 Te            1 RES     
      31 Mo          15.2639     3.4330     9.6058 Mo            1 RES     
      32 Mo          18.5519     8.5410     9.4688 Mo            1 RES     
      33 Mo           7.9809    18.7640     9.4698 Mo            1 RES     
      34 Nb           1.3849    21.8640     9.4698 Nb            1 RES     
      35 Mo          12.2869     2.1520     8.6238 Mo            1 RES     
      36 Mo          18.2219    11.8300     8.6228 Mo            1 RES     
      37 Mo           7.6499    15.4750     8.6238 Mo            1 RES     
      38 Te           1.7149    25.1530     8.6238 Te            1 RES     
      39 Mo          16.2269    23.3810     9.1238 Mo            1 RES     
      40 V           14.2819    17.2460     9.1228 V             1 RES     
      41 Mo           3.7089    10.0570     9.1228 Mo            1 RES     
      42 Mo           5.6549     3.9220     9.1228 Mo            1 RES     
      43 Mo           4.6829     6.9900     9.5888 Mo            1 RES     
      44 Mo          15.2549    20.3130     9.5878 Mo            1 RES     
      45 O            4.6829    20.3130     6.8408 O             1 RES     
      46 O            4.6829     6.9900    11.2568 O             1 RES     
      47 O            7.1289    26.4600     6.9038 O             1 RES     
      48 O            8.4219     6.2410     6.8718 O             1 RES     
      49 O            9.1869     2.7870    11.3388 O             1 RES     
      50 O           10.6859    25.9500    11.3008 O             1 RES     
      51 O           12.7259    23.1660     6.8668 O             1 RES     
      52 O           14.2869    26.3490    11.3368 O             1 RES     
      53 O           12.2909     2.1510     6.9128 O             1 RES     
      54 O            4.7029    23.8440    11.2838 O             1 RES     
      55 O           11.9709     5.5190    11.1458 O             1 RES     
      56 O           16.3679    23.5780    10.9438 O             1 RES     
      57 O           15.6679     5.1720     9.0848 O             1 RES     
      58 O           16.7899     2.4900     9.1008 O             1 RES     
      59 O            5.5129     0.7420     9.1198 O             1 RES     
      60 O           16.9289    21.2670     8.9908 O             1 RES     
      61 O           19.4549     1.5450     9.1138 O             1 RES     
      62 O           21.0589    25.9940     9.2188 O             1 RES     
      63 O           18.9499    22.8890     9.1258 O             1 RES     
      64 O            3.9319     5.2420     8.9758 O             1 RES     
      65 O            0.8029     3.0360     9.1478 O             1 RES     
      66 O            0.3629    23.6320     9.1038 O             1 RES     
      67 O           20.9199    21.0040     8.9868 O             1 RES     
      68 O            1.9009     0.6100     9.0298 O             1 RES     
      69 O            2.7389    23.3910     9.1088 O             1 RES     
      70 O            2.7619    20.7520     8.9228 O             1 RES     
      71 O            1.2879     5.8440     8.9438 O             1 RES     
      72 O            3.5759     2.7730     9.0388 O             1 RES     
      73 O            3.6339    25.5900     9.2188 O             1 RES     
      74 O            7.9079     1.6130     9.0738 O             1 RES     
      75 O           15.2539     6.9900     6.8408 O             1 RES     
      76 O           15.2549    20.3130    11.2568 O             1 RES     
      77 O            2.2369    14.1640     6.9048 O             1 RES     
      78 O           12.8089    13.1380     6.9028 O             1 RES     
      79 O           17.7009     0.8400     6.9048 O             1 RES     
      80 O            0.9409     7.7380     6.8738 O             1 RES     
      81 O           11.5149    19.5650     6.8718 O             1 RES     
      82 O           18.9959    21.0620     6.8738 O             1 RES     
      83 O            0.1749    11.1930    11.3398 O             1 RES     
      84 O           10.7489    16.1100    11.3388 O             1 RES     
      85 O           19.7619    24.5160    11.3408 O             1 RES     
      86 O           19.8229    14.6760    11.3008 O             1 RES     
      87 O            9.2509    12.6270    11.2998 O             1 RES     
      88 O            0.1139     1.3530    11.3008 O             1 RES     
      89 O           17.7849    17.4630     6.8668 O             1 RES     
      90 O            7.2109     9.8420     6.8668 O             1 RES     
      91 O            2.1519     4.1390     6.8668 O             1 RES     
      92 O           16.2199    14.2790    11.3358 O             1 RES     
      93 O            5.6509    13.0250    11.3358 O             1 RES     
      94 O            3.7179     0.9560    11.3358 O             1 RES     
      95 O           18.2179    11.8320     6.9118 O             1 RES     
      96 O            7.6449    15.4740     6.9128 O             1 RES     
      97 O            1.7189    25.1560     6.9118 O             1 RES     
      98 O            4.6599    16.7830    11.2838 O             1 RES     
      99 O           15.2339    10.5210    11.2828 O             1 RES     
     100 O           15.2769     3.4600    11.2838 O             1 RES     
     101 O           18.5349     8.4650    11.1448 O             1 RES     
     102 O            7.9659    18.8420    11.1458 O             1 RES     
     103 O            1.4009    21.7870    11.1458 O             1 RES     
     104 O           14.1409    17.0480    10.9418 O             1 RES     
     105 O            3.5689    10.2540    10.9428 O             1 RES     
     106 O            5.7959     3.7250    10.9428 O             1 RES     
     107 O           14.8409     8.8090     9.0848 O             1 RES     
     108 O            4.2689    18.4950     9.0848 O             1 RES     
     109 O            5.0959    22.1320     9.0848 O             1 RES     
     110 O           13.7189    11.4900     9.1018 O             1 RES     
     111 O            3.1469    15.8130     9.1008 O             1 RES     
     112 O            6.2179    24.8130     9.1018 O             1 RES     
     113 O            3.8529    13.2380     9.1218 O             1 RES     
     114 O           14.4249    14.0660     9.1198 O             1 RES     
     115 O           16.0839    26.5620     9.1218 O             1 RES     
     116 O           13.5799    19.3590     8.9898 O             1 RES     
     117 O            3.0079     7.9440     8.9908 O             1 RES     
     118 O            6.3569     6.0360     8.9898 O             1 RES     
     119 O           11.0539    12.4360     9.1118 O             1 RES     
     120 O            0.4829    14.8680     9.1138 O             1 RES     
     121 O            8.8829    25.7590     9.1128 O             1 RES     
     122 O            9.4499    14.6340     9.2178 O             1 RES     
     123 O           20.0219    12.6710     9.2178 O             1 RES     
     124 O           10.4869     1.3100     9.2188 O             1 RES     
     125 O           11.5589    17.7380     9.1238 O             1 RES     
     126 O            0.9869     9.5650     9.1258 O             1 RES     
     127 O            8.3769     4.4150     9.1238 O             1 RES     
     128 O            5.4319     8.7380     8.9748 O             1 RES     
     129 O           16.0049    18.5660     8.9748 O             1 RES     
     130 O           14.5049    22.0610     8.9758 O             1 RES     
     131 O            8.5619    10.9450     9.1458 O             1 RES     
     132 O           19.1339    16.3590     9.1478 O             1 RES     
     133 O           11.3749    24.2680     9.1468 O             1 RES     
     134 O            9.0029    16.9960     9.1048 O             1 RES     
     135 O           19.5739    10.3090     9.1038 O             1 RES     
     136 O           10.9339     3.6720     9.1048 O             1 RES     
     137 O            9.5899    19.6230     8.9848 O             1 RES     
     138 O           20.1609     7.6810     8.9868 O             1 RES     
     139 O           10.3469     6.3000     8.9848 O             1 RES     
     140 O            7.4639    13.3710     9.0278 O             1 RES     
     141 O           18.0359    13.9330     9.0298 O             1 RES     
     142 O           12.4729     0.0480     9.0288 O             1 RES     
     143 O            6.6259    17.2370     9.1118 O             1 RES     
     144 O           17.1979    10.0680     9.1078 O             1 RES     
     145 O           13.3109     3.9130     9.1118 O             1 RES     
     146 O            6.6039    19.8750     8.9228 O             1 RES     
     147 O           17.1749     7.4290     8.9228 O             1 RES     
     148 O           13.3329     6.5520     8.9228 O             1 RES     
     149 O            8.0759     8.1360     8.9428 O             1 RES     
     150 O           18.6489    19.1680     8.9438 O             1 RES     
     151 O           11.8609    21.4590     8.9428 O             1 RES     
     152 O            5.7889    11.2070     9.0388 O             1 RES     
     153 O           16.3609    16.0970     9.0378 O             1 RES     
     154 O           14.1479    24.5310     9.0388 O             1 RES     
     155 O            5.7319    15.0380     9.2188 O             1 RES     
     156 O           16.3039    12.2670     9.2178 O             1 RES     
     157 O           14.2059     1.7140     9.2188 O             1 RES     
     158 O            1.4569    12.3670     9.0768 O             1 RES     
     159 O           12.0289    14.9360     9.0738 O             1 RES     
     160 O           18.2679    25.7890     9.0678 O             1 RES     
     161 Mo           4.6829    20.3130    12.5160 Mo            1 RES     
     162 Mo           7.1399    26.4850    12.5800 Mo            1 RES     
     163 Mo           8.4149     6.3020    12.5460 Mo            1 RES     
     164 Mo           9.1889     2.7960    13.6630 Mo            1 RES     
     165 Te          10.6599    25.9410    13.6260 Te            1 RES     
     166 Mo          12.7689    23.0860    12.5400 Mo            1 RES     
     167 Mo          14.3299    26.3770    13.6630 Mo            1 RES     
     168 Mo           4.6909    23.8710    13.6090 Mo            1 RES     
     169 Mo          11.9549     5.4400    13.4730 Mo            1 RES     
     170 Mo          15.2539     6.9900    12.5160 Mo            1 RES     
     171 Mo           2.2249    14.1400    12.5820 Mo            1 RES     
     172 Mo          12.7969    13.1620    12.5800 Mo            1 RES     
     173 Mo          17.7119     0.8170    12.5820 Mo            1 RES     
     174 Mo           0.9479     7.6770    12.5480 Mo            1 RES     
     175 V           11.5209    19.6260    12.5460 V             1 RES     
     176 V           18.9889    21.0010    12.5480 V             1 RES     
     177 Mo           0.1749    11.1840    13.6640 Mo            1 RES     
     178 Nb          10.7479    16.1200    13.6630 Nb            1 RES     
     179 Mo          19.7619    24.5070    13.6650 Mo            1 RES     
     180 V           19.8489    14.6870    13.6260 V             1 RES     
     181 Mo           9.2769    12.6170    13.6250 Mo            1 RES     
     182 Mo           0.0879     1.3630    13.6270 Mo            1 RES     
     183 Mo          17.7409    17.5410    12.5400 Mo            1 RES     
     184 Mo           7.1679     9.7630    12.5400 Mo            1 RES     
     185 Mo           2.1969     4.2180    12.5410 Mo            1 RES     
     186 Te          16.1789    14.2510    13.6630 Te            1 RES     
     187 V            5.6079    13.0530    13.6630 V             1 RES     
     188 Mo           3.7579     0.9270    13.6630 Mo            1 RES     
     189 Mo           4.6729    16.7560    13.6090 Mo            1 RES     
     190 Mo          15.2459    10.5470    13.6080 Mo            1 RES     
     191 Mo          15.2639     3.4330    13.6090 Mo            1 RES     
     192 Mo          18.5519     8.5410    13.4720 Mo            1 RES     
     193 V            7.9809    18.7640    13.4730 V             1 RES     
     194 Mo           1.3849    21.8640    13.4730 Mo            1 RES     
     195 Mo          12.2869     2.1520    12.6270 Mo            1 RES     
     196 Mo          18.2219    11.8300    12.6260 Mo            1 RES     
     197 Mo           7.6499    15.4750    12.6270 Mo            1 RES     
     198 Mo           1.7149    25.1530    12.6270 Mo            1 RES     
     199 Mo          16.2269    23.3810    13.1270 Mo            1 RES     
     200 Mo          14.2819    17.2460    13.1260 Mo            1 RES     
     201 Mo           3.7089    10.0570    13.1260 Mo            1 RES     
     202 Te           5.6549     3.9220    13.1260 Te            1 RES     
     203 Mo           4.6829     6.9900    13.5920 Mo            1 RES     
     204 Mo          15.2549    20.3130    13.5910 Mo            1 RES     
     205 O            4.6829    20.3130    10.8440 O             1 RES     
     206 O            4.6829     6.9900    15.2600 O             1 RES     
     207 O            7.1289    26.4600    10.9070 O             1 RES     
     208 O            8.4219     6.2410    10.8750 O             1 RES     
     209 O            9.1869     2.7870    15.3420 O             1 RES     
     210 O           10.6859    25.9500    15.3040 O             1 RES     
     211 O           12.7259    23.1660    10.8700 O             1 RES     
     212 O           14.2869    26.3490    15.3400 O             1 RES     
     213 O           12.2909     2.1510    10.9160 O             1 RES     
     214 O            4.7029    23.8440    15.2870 O             1 RES     
     215 O           11.9709     5.5190    15.1490 O             1 RES     
     216 O           16.3679    23.5780    14.9470 O             1 RES     
     217 O           15.6679     5.1720    13.0880 O             1 RES     
     218 O           16.7899     2.4900    13.1040 O             1 RES     
     219 O            5.5129     0.7420    13.1230 O             1 RES     
     220 O           16.9289    21.2670    12.9940 O             1 RES     
     221 O           19.4549     1.5450    13.1170 O             1 RES     
     222 O           21.0589    25.9940    13.2220 O             1 RES     
     223 O           18.9499    22.8890    13.1290 O             1 RES     
     224 O            3.9319     5.2420    12.9790 O             1 RES     
     225 O            0.8029     3.0360    13.1510 O             1 RES     
     226 O            0.3629    23.6320    13.1070 O             1 RES     
     227 O           20.9199    21.0040    12.9900 O             1 RES     
     228 O            1.9009     0.6100    13.0330 O             1 RES     
     229 O            2.7389    23.3910    13.1120 O             1 RES     
     230 O            2.7619    20.7520    12.9260 O             1 RES     
     231 O            1.2879     5.8440    12.9470 O             1 RES     
     232 O            3.5759     2.7730    13.0420 O             1 RES     
     233 O            3.6339    25.5900    13.2220 O             1 RES     
     234 O            7.9079     1.6130    13.0770 O             1 RES     
     235 O           15.2539     6.9900    10.8440 O             1 RES     
     236 O           15.2549    20.3130    15.2600 O             1 RES     
     237 O            2.2369    14.1640    10.9080 O             1 RES     
     238 O           12.8089    13.1380    10.9060 O             1 RES     
     239 O           17.7009     0.8400    10.9080 O             1 RES     
     240 O            0.9409     7.7380    10.8770 O             1 RES     
     241 O           11.5149    19.5650    10.8750 O             1 RES     
     242 O           18.9959    21.0620    10.8770 O             1 RES     
     243 O            0.1749    11.1930    15.3430 O             1 RES     
     244 O           10.7489    16.1100    15.3420 O             1 RES     
     245 O           19.7619    24.5160    15.3440 O             1 RES     
     246 O           19.8229    14.6760    15.3040 O             1 RES     
     247 O            9.2509    12.6270    15.3030 O             1 RES     
     248 O            0.1139     1.3530    15.3040 O             1 RES     
     249 O           17.7849    17.4630    10.8700 O             1 RES     
     250 O            7.2109     9.8420    10.8700 O             1 RES     
     251 O            2.1519     4.1390    10.8700 O             1 RES     
     252 O           16.2199    14.2790    15.3390 O             1 RES     
     253 O            5.6509    13.0250    15.3390 O             1 RES     
     254 O            3.7179     0.9560    15.3390 O             1 RES     
     255 O           18.2179    11.8320    10.9150 O             1 RES     
     256 O            7.6449    15.4740    10.9160 O             1 RES     
     257 O            1.7189    25.1560    10.9150 O             1 RES     
     258 O            4.6599    16.7830    15.2870 O             1 RES     
     259 O           15.2339    10.5210    15.2860 O             1 RES     
     260 O           15.2769     3.4600    15.2870 O             1 RES     
     261 O           18.5349     8.4650    15.1480 O             1 RES     
     262 O            7.9659    18.8420    15.1490 O             1 RES     
     263 O            1.4009    21.7870    15.1490 O             1 RES     
     264 O           14.1409    17.0480    14.9450 O             1 RES     
     265 O            3.5689    10.2540    14.9460 O             1 RES     
     266 O            5.7959     3.7250    14.9460 O             1 RES     
     267 O           14.8409     8.8090    13.0880 O             1 RES     
     268 O            4.2689    18.4950    13.0880 O             1 RES     
     269 O            5.0959    22.1320    13.0880 O             1 RES     
     270 O           13.7189    11.4900    13.1050 O             1 RES     
     271 O            3.1469    15.8130    13.1040 O             1 RES     
     272 O            6.2179    24.8130    13.1050 O             1 RES     
     273 O            3.8529    13.2380    13.1250 O             1 RES     
     274 O           14.4249    14.0660    13.1230 O             1 RES     
     275 O           16.0839    26.5620    13.1250 O             1 RES     
     276 O           13.5799    19.3590    12.9930 O             1 RES     
     277 O            3.0079     7.9440    12.9940 O             1 RES     
     278 O            6.3569     6.0360    12.9930 O             1 RES     
     279 O           11.0539    12.4360    13.1150 O             1 RES     
     280 O            0.4829    14.8680    13.1170 O             1 RES     
     281 O            8.8829    25.7590    13.1160 O             1 RES     
     282 O            9.4499    14.6340    13.2210 O             1 RES     
     283 O           20.0219    12.6710    13.2210 O             1 RES     
     284 O           10.4869     1.3100    13.2220 O             1 RES     
     285 O           11.5589    17.7380    13.1270 O             1 RES     
     286 O            0.9869     9.5650    13.1290 O             1 RES     
     287 O            8.3769     4.4150    13.1270 O             1 RES     
     288 O            5.4319     8.7380    12.9780 O             1 RES     
     289 O           16.0049    18.5660    12.9780 O             1 RES     
     290 O           14.5049    22.0610    12.9790 O             1 RES     
     291 O            8.5619    10.9450    13.1490 O             1 RES     
     292 O           19.1339    16.3590    13.1510 O             1 RES     
     293 O           11.3749    24.2680    13.1500 O             1 RES     
     294 O            9.0029    16.9960    13.1080 O             1 RES     
     295 O           19.5739    10.3090    13.1070 O             1 RES     
     296 O           10.9339     3.6720    13.1080 O             1 RES     
     297 O            9.5899    19.6230    12.9880 O             1 RES     
     298 O           20.1609     7.6810    12.9900 O             1 RES     
     299 O           10.3469     6.3000    12.9880 O             1 RES     
     300 O            7.4639    13.3710    13.0310 O             1 RES     
     301 O           18.0359    13.9330    13.0330 O             1 RES     
     302 O           12.4729     0.0480    13.0320 O             1 RES     
     303 O            6.6259    17.2370    13.1150 O             1 RES     
     304 O           17.1979    10.0680    13.1110 O             1 RES     
     305 O           13.3109     3.9130    13.1150 O             1 RES     
     306 O            6.6039    19.8750    12.9260 O             1 RES     
     307 O           17.1749     7.4290    12.9260 O             1 RES     
     308 O           13.3329     6.5520    12.9260 O             1 RES     
     309 O            8.0759     8.1360    12.9460 O             1 RES     
     310 O           18.6489    19.1680    12.9470 O             1 RES     
     311 O           11.8609    21.4590    12.9460 O             1 RES     
     312 O            5.7889    11.2070    13.0420 O             1 RES     
     313 O           16.3609    16.0970    13.0410 O             1 RES     
     314 O           14.1479    24.5310    13.0420 O             1 RES     
     315 O            5.7319    15.0380    13.2220 O             1 RES     
     316 O           16.3039    12.2670    13.2210 O             1 RES     
     317 O           14.2059     1.7140    13.2220 O             1 RES     
     318 O            1.4569    12.3670    13.0800 O             1 RES     
     319 O           12.0289    14.9360    13.0770 O             1 RES     
     320 O           18.2679    25.7890    13.0710 O             1 RES     
     321 C           12.5645     2.6494    21.1780 C             1 RES     
     322 C           14.0695     2.7677    21.2637 C             1 RES     
     323 H           12.2800     1.8837    20.4501 H             1 RES     
     324 H           12.1213     3.6006    20.8684 H             1 RES     
     325 H           12.1446     2.3738    22.1499 H             1 RES     
     326 H           14.4893     3.0433    20.2918 H             1 RES     
     327 H           14.5127     1.8165    21.5733 H             1 RES     
     328 H           14.3539     3.5334    21.9916 H             1 RES     
     329 C            9.1014     8.1607    19.6941 C             1 RES     
     330 C            7.6239     8.3766    19.9320 C             1 RES     
     331 H            9.6259     8.0132    20.6429 H             1 RES     
     332 H            9.5399     9.0264    19.1889 H             1 RES     
     333 H            9.2651     7.2777    19.0691 H             1 RES     
     334 H            7.4603     9.2596    20.5570 H             1 RES     
     335 H            7.1854     7.5108    20.4371 H             1 RES     
     336 H            7.0994     8.5241    18.9832 H             1 RES     
     337 C           18.8668     1.6345    19.9103 C             1 RES     
     338 C           18.8465     2.1823    21.3195 C             1 RES     
     339 H           19.1994     2.4015    19.2046 H             1 RES     
     340 H           17.8678     1.3024    19.6126 H             1 RES     
     341 H           19.5488     0.7819    19.8392 H             1 RES     
     342 H           18.1645     3.0348    21.3907 H             1 RES     
     343 H           19.8455     2.5144    21.6172 H             1 RES     
     344 H           18.5139     1.4152    22.0252 H             1 RES     
     345 C            1.8551    23.4957    19.5742 C             1 RES     
     346 C            2.2231    24.9438    19.8066 C             1 RES     
     347 H            1.3320    23.0877    20.4442 H             1 RES     
     348 H            2.7522    22.8946    19.3985 H             1 RES     
     349 H            1.2005    23.4006    18.7027 H             1 RES     
     350 H            2.8777    25.0389    20.6780 H             1 RES     
     351 H            1.3259    25.5448    19.9823 H             1 RES     
     352 H            2.7462    25.3518    18.9365 H             1 RES     
     353 C           19.0268    19.3942    21.8005 C             1 RES     
     354 C           19.3017    19.3315    20.3149 C             1 RES     
     355 H           19.9006    19.0597    22.3675 H             1 RES     
     356 H           18.1801    18.7525    22.0620 H             1 RES     
     357 H           18.7900    20.4181    22.1046 H             1 RES     
     358 H           19.5385    18.3075    20.0108 H             1 RES     
     359 H           20.1484    19.9731    20.0534 H             1 RES     
     360 H           18.4279    19.6660    19.7479 H             1 RES     
     361 C            6.9723    16.1756    19.2646 C             1 RES     
     362 C            7.1215    16.3514    20.7589 C             1 RES     
     363 H            5.9320    15.9578    19.0052 H             1 RES     
     364 H            7.5959    15.3492    18.9107 H             1 RES     
     365 H            7.2753    17.0857    18.7384 H             1 RES     
     366 H            6.8185    15.4412    21.2851 H             1 RES     
     367 H            6.4979    17.1777    21.1128 H             1 RES     
     368 H            8.1618    16.5691    21.0183 H             1 RES     
     369 C           11.1752    20.2920    21.1052 C             1 RES     
     370 C           10.4320    20.1875    19.7926 C             1 RES     
     371 H           12.2488    20.4105    20.9306 H             1 RES     
     372 H           11.0213    19.3912    21.7067 H             1 RES     
     373 H           10.8223    21.1540    21.6791 H             1 RES     
     374 H           10.7849    19.3255    19.2187 H             1 RES     
     375 H           10.5859    21.0883    19.1910 H             1 RES     
     376 H            9.3585    20.0691    19.9671 H             1 RES     
     377 C            6.5801    22.7784    21.7135 C             1 RES     
     378 C            7.3230    24.0127    21.2544 C             1 RES     
     379 H            7.2214    22.1565    22.3451 H             1 RES     
     380 H            6.2592    22.1813    20.8547 H             1 RES     
     381 H            5.6931    23.0561    22.2907 H             1 RES     
     382 H            8.2100    23.7349    20.6772 H             1 RES     
     383 H            7.6439    24.6097    22.1133 H             1 RES     
     384 H            6.6817    24.6346    20.6228 H             1 RES     
     385 C            2.0969    18.5193    20.2294 C             1 RES     
     386 C            2.3507    18.8899    21.6732 C             1 RES     
     387 H            1.5602    17.5681    20.1654 H             1 RES     
     388 H            3.0415    18.4192    19.6866 H             1 RES     
     389 H            1.4954    19.2882    19.7353 H             1 RES     
     390 H            2.9521    18.1211    22.1673 H             1 RES     
     391 H            1.4060    18.9901    22.2160 H             1 RES     
     392 H            2.8873    19.8412    21.7372 H             1 RES     
     393 C           18.2319    24.0137    19.5162 C             1 RES     
     394 C           19.0919    24.7358    20.5287 C             1 RES     
     395 H           17.6989    24.7301    18.8840 H             1 RES     
     396 H           17.4936    23.3824    20.0195 H             1 RES     
     397 H           18.8475    23.3779    18.8728 H             1 RES     
     398 H           18.4763    25.3716    21.1720 H             1 RES     
     399 H           19.8302    25.3671    20.0253 H             1 RES     
     400 H           19.6249    24.0194    21.1608 H             1 RES     
     401 C           14.0475     8.3254    21.6844 C             1 RES     
     402 C           14.0827     7.9309    20.2251 C             1 RES     
     403 H           13.1142     7.9944    22.1495 H             1 RES     
     404 H           14.1190     9.4120    21.7905 H             1 RES     
     405 H           14.8825     7.8707    22.2256 H             1 RES     
     406 H           13.2477     8.3857    19.6838 H             1 RES     
     407 H           14.0112     6.8444    20.1189 H             1 RES     
     408 H           15.0160     8.2619    19.7599 H             1 RES     
     409 C           10.1143    12.5404    21.6781 C             1 RES     
     410 C           11.4360    12.8247    21.0008 C             1 RES     
     411 H            9.9367    13.2533    22.4887 H             1 RES     
     412 H           10.1078    11.5307    22.0995 H             1 RES     
     413 H            9.2907    12.6203    20.9623 H             1 RES     
     414 H           12.2596    12.7447    21.7166 H             1 RES     
     415 H           11.4426    13.8343    20.5794 H             1 RES     
     416 H           11.6137    12.1117    20.1902 H             1 RES     
     417 C           17.5316    11.6637    21.6003 C             1 RES     
     418 C           18.7956    12.4889    21.5127 C             1 RES     
     419 H           17.3917    11.0768    20.6877 H             1 RES     
     420 H           16.6588    12.3103    21.7313 H             1 RES     
     421 H           17.5805    10.9748    22.4489 H             1 RES     
     422 H           18.7467    13.1778    20.6642 H             1 RES     
     423 H           19.6684    11.8423    21.3817 H             1 RES     
     424 H           18.9354    13.0758    22.4254 H             1 RES     
     425 C            2.4213     2.3491    20.1381 C             1 RES     
     426 C            2.2516     2.4827    21.6346 C             1 RES     
     427 H            2.8325     3.2702    19.7142 H             1 RES     
     428 H            1.4585     2.1490    19.6585 H             1 RES     
     429 H            3.1022     1.5265    19.9004 H             1 RES     
     430 H            1.5706     3.3054    21.8723 H             1 RES     
     431 H            3.2143     2.6828    22.1142 H             1 RES     
     432 H            1.8404     1.5617    22.0585 H             1 RES     
     433 C           15.4776    15.9209    19.6207 C             1 RES     
     434 C           14.4715    17.0483    19.6758 C             1 RES     
     435 H           16.1359    16.0353    18.7544 H             1 RES     
     436 H           14.9690    14.9554    19.5419 H             1 RES     
     437 H           16.0950    15.9124    20.5239 H             1 RES     
     438 H           13.8540    17.0568    18.7727 H             1 RES     
     439 H           14.9800    18.0138    19.7547 H             1 RES     
     440 H           13.8131    16.9338    20.5421 H             1 RES     
     441 C            7.4683     3.4308    19.9940 C             1 RES     
     442 C            7.7338     1.9629    19.7469 C             1 RES     
     443 H            7.3376     3.9625    19.0468 H             1 RES     
     444 H            8.3040     3.8872    20.5328 H             1 RES     
     445 H            6.5608     3.5620    20.5909 H             1 RES     
     446 H            8.6414     1.8317    19.1501 H             1 RES     
     447 H            6.8981     1.5065    19.2081 H             1 RES     
     448 H            7.8645     1.4312    20.6942 H             1 RES     
     449 C            1.6111     7.7269    20.1125 C             1 RES     
     450 C            3.1197     7.6876    20.2075 C             1 RES     
     451 H            1.1866     8.2708    20.9616 H             1 RES     
     452 H            1.1995     6.7132    20.1121 H             1 RES     
     453 H            1.2969     8.2267    19.1914 H             1 RES     
     454 H            3.4338     7.1878    21.1286 H             1 RES     
     455 H            3.5313     8.7012    20.2078 H             1 RES     
     456 H            3.5441     7.1436    19.3584 H             1 RES     
     457 C            2.2319    13.2720    20.3792 C             1 RES     
     458 C            3.1261    12.8942    21.5385 C             1 RES     
     459 H            1.9212    12.3801    19.8270 H             1 RES     
     460 H            2.7580    13.9386    19.6894 H             1 RES     
     461 H            1.3346    13.7854    20.7374 H             1 RES     
     462 H            4.0234    12.3808    21.1804 H             1 RES     
     463 H            2.6000    12.2277    22.2284 H             1 RES     
     464 H            3.4368    13.7861    22.0908 H             1 RES     
     465 C           19.3602     7.0894    20.7863 C             1 RES     
     466 C           19.3939     7.1856    19.2777 C             1 RES     
     467 H           20.0118     6.2825    21.1346 H             1 RES     
     468 H           18.3435     6.8863    21.1358 H             1 RES     
     469 H           19.6995     8.0259    21.2388 H             1 RES     
     470 H           19.0547     6.2491    18.8251 H             1 RES     
     471 H           20.4106     7.3887    18.9282 H             1 RES     
     472 H           18.7423     7.9925    18.9294 H             1 RES     
     473 C           13.5159    24.8794    21.7496 C             1 RES     
     474 C           13.1208    24.6650    20.3059 C             1 RES     
     475 H           13.2993    23.9868    22.3440 H             1 RES     
     476 H           12.9638    25.7211    22.1782 H             1 RES     
     477 H           14.5859    25.0938    21.8274 H             1 RES     
     478 H           12.0507    24.4506    20.2282 H             1 RES     
     479 H           13.6729    23.8233    19.8773 H             1 RES     
     480 H           13.3374    25.5576    19.7115 H             1 RES     
@<TRIPOS>BOND
       1      282      181 1
       2       35       53 1
       3      305      169 1
       4       66       34 1
       5      223      179 1
       6      292      183 1
       7      330      336 1
       8      418      424 1
       9        5       50 1
      10      287      164 1
      11      244      178 1
      12      231      185 1
      13      291      181 1
      14      216      199 1
      15      401      403 1
      16      338      342 1
      17       32      101 1
      18        9       55 1
      19      300      187 1
      20       10      107 1
      21       44       76 1
      22      232      188 1
      23      466      471 1
      24      434      438 1
      25       71       14 1
      26       18       84 1
      27       33      134 1
      28      361      362 1
      29      271      171 1
      30      315      187 1
      31      231      174 1
      32      377      378 1
      33      442      447 1
      34      458      464 1
      35      225      185 1
      36       23       89 1
      37        8      112 1
      38       26      153 1
      39       42      106 1
      40        8       73 1
      41       45        1 1
      42      260      191 1
      43       10      148 1
      44      280      171 1
      45      457      461 1
      46      354      359 1
      47      393      395 1
      48      242      176 1
      49      378      382 1
      50      224      185 1
      51      329      330 1
      52      417      418 1
      53      286      174 1
      54      362      367 1
      55       24      149 1
      56       12      119 1
      57      303      189 1
      58       21       87 1
      59       13       61 1
      60      262      193 1
      61      210      165 1
      62       41      105 1
      63      329      333 1
      64      417      421 1
      65      394      399 1
      66      204      220 1
      67      226      194 1
      68      385      387 1
      69      473      475 1
      70      253      187 1
      71       15      116 1
      72      234      164 1
      73       19       85 1
      74      346      352 1
      75      297      175 1
      76      337      340 1
      77      426      431 1
      78      308      170 1
      79      300      181 1
      80      353      356 1
      81      474      478 1
      82       14      117 1
      83      277      203 1
      84      465      467 1
      85      278      203 1
      86      223      176 1
      87      441      442 1
      88       27      113 1
      89        6      151 1
      90       47        2 1
      91      306      193 1
      92       15       81 1
      93       12      114 1
      94       69       34 1
      95       31      100 1
      96      217      170 1
      97       29      108 1
      98      434      439 1
      99      409      411 1
     100      272      168 1
     101       27      155 1
     102      307      192 1
     103       33      146 1
     104        3      118 1
     105      442      448 1
     106      458      463 1
     107      225      182 1
     108      369      372 1
     109       33      102 1
     110       19       63 1
     111      384      378 1
     112      312      187 1
     113       26      156 1
     114        8       54 1
     115      345      346 1
     116      207      162 1
     117      203      206 1
     118      330      334 1
     119      418      422 1
     120        3      139 1
     121      410      415 1
     122      457      458 1
     123       20       86 1
     124      230      194 1
     125       67       16 1
     126      329      331 1
     127      417      419 1
     128      245      179 1
     129      292      180 1
     130      409      412 1
     131      273      187 1
     132       27      152 1
     133      311      175 1
     134      361      364 1
     135        7      154 1
     136      273      171 1
     137      362      368 1
     138       68       28 1
     139      322      327 1
     140      377      380 1
     141      217      191 1
     142       21      122 1
     143       25       64 1
     144      215      169 1
     145      433      435 1
     146       16       82 1
     147      241      175 1
     148      449      450 1
     149       43      118 1
     150        1      109 1
     151      316      190 1
     152       72       28 1
     153       39       56 1
     154       10       57 1
     155      294      178 1
     156      256      197 1
     157      281      165 1
     158      337      341 1
     159      279      181 1
     160      293      166 1
     161      214      168 1
     162       40      104 1
     163      370      374 1
     164      404      401 1
     165      211      166 1
     166      314      166 1
     167        9      136 1
     168      243      177 1
     169       31      145 1
     170       27       93 1
     171      257      198 1
     172        1      146 1
     173      278      163 1
     174       23      132 1
     175      318      171 1
     176      275      167 1
     177      385      389 1
     178      320      179 1
     179      306      161 1
     180      289      204 1
     181      473      477 1
     182      298      192 1
     183      450      455 1
     184       30      144 1
     185      290      166 1
     186       28       59 1
     187        7      115 1
     188      209      164 1
     189       17      126 1
     190      346      350 1
     191      311      166 1
     192      281      162 1
     193      337      338 1
     194      393      396 1
     195      255      196 1
     196       29      155 1
     197      474      480 1
     198      312      184 1
     199       29      143 1
     200      285      178 1
     201       13       79 1
     202      465      469 1
     203      221      173 1
     204      441      444 1
     205        9      148 1
     206      401      402 1
     207      314      167 1
     208        3      149 1
     209      267      170 1
     210      338      343 1
     211      425      428 1
     212      290      204 1
     213      286      177 1
     214      317      191 1
     215        8      109 1
     216      232      185 1
     217       34      103 1
     218       23      129 1
     219       33      137 1
     220       24      131 1
     221      361      363 1
     222      230      161 1
     223        6       51 1
     224      259      190 1
     225      442      446 1
     226      271      189 1
     227       21      119 1
     228      229      194 1
     229      433      434 1
     230      269      168 1
     231       14      126 1
     232      345      348 1
     233      305      191 1
     234      457      460 1
     235       16      150 1
     236       44      130 1
     237      310      176 1
     238      277      174 1
     239      274      172 1
     240        6      130 1
     241       31       57 1
     242      407      402 1
     243        3       48 1
     244       15      137 1
     245       68       22 1
     246       15      151 1
     247      386      391 1
     248       13       58 1
     249      301      186 1
     250        2      112 1
     251      362      366 1
     252        3      127 1
     253       20      132 1
     254      299      163 1
     255      264      200 1
     256      394      398 1
     257      449      452 1
     258      268      189 1
     259        4       74 1
     260      450      456 1
     261      321      324 1
     262       22       88 1
     263        9      139 1
     264      228      188 1
     265      337      339 1
     266      426      432 1
     267      308      169 1
     268      353      355 1
     269       32      144 1
     270       44       60 1
     271      263      194 1
     272      285      175 1
     273      370      376 1
     274      465      466 1
     275      441      443 1
     276       31       58 1
     277      319      172 1
     278      425      429 1
     279      307      170 1
     280      319      178 1
     281        6      154 1
     282      297      193 1
     283      303      193 1
     284        4       49 1
     285       24       90 1
     286       29      111 1
     287      409      410 1
     288      213      195 1
     289        7       52 1
     290      466      470 1
     291      222      179 1
     292      304      190 1
     293        5      133 1
     294      248      182 1
     295      268      161 1
     296      369      371 1
     297       12       78 1
     298      313      186 1
     299       32      135 1
     300      385      386 1
     301      473      474 1
     302       11      111 1
     303      270      172 1
     304      236      204 1
     305      345      347 1
     306      330      335 1
     307      418      423 1
     308      287      163 1
     309       14       80 1
     310       24      128 1
     311      425      426 1
     312      301      180 1
     313       37       96 1
     314        2      121 1
     315      276      204 1
     316      229      168 1
     317      246      180 1
     318      250      184 1
     319      239      173 1
     320      361      365 1
     321      386      390 1
     322       15      125 1
     323      322      328 1
     324      377      379 1
     325      406      402 1
     326      228      182 1
     327      433      436 1
     328       16       63 1
     329      296      164 1
     330       30      156 1
     331      449      451 1
     332      321      325 1
     333       29       98 1
     334      218      191 1
     335       10      147 1
     336       36       95 1
     337      354      358 1
     338      393      394 1
     339       16       60 1
     340       11      120 1
     341      237      171 1
     342       71       25 1
     343      220      176 1
     344      370      375 1
     345       19       62 1
     346       43       46 1
     347       30      107 1
     348      383      378 1
     349       24      152 1
     350      284      164 1
     351       18      122 1
     352      309      184 1
     353      394      400 1
     354      274      186 1
     355      385      388 1
     356      473      476 1
     357       33      143 1
     358       19      160 1
     359       65       25 1
     360      450      454 1
     361      316      186 1
     362      321      322 1
     363       25       91 1
     364       20      123 1
     365      393      397 1
     366      426      430 1
     367      318      177 1
     368      353      357 1
     369       18      159 1
     370       32      138 1
     371      309      163 1
     372      474      479 1
     373      465      468 1
     374       28       94 1
     375       26      114 1
     376      441      445 1
     377       30      110 1
     378      338      344 1
     379      425      427 1
     380      265      201 1
     381       17      158 1
     382       20      141 1
     383       69        8 1
     384       21      131 1
     385       11      158 1
     386       17       83 1
     387        4      136 1
     388      227      176 1
     389      434      440 1
     390      410      416 1
     391      267      190 1
     392       12      110 1
     393       27      140 1
     394      304      192 1
     395      315      189 1
     396      458      462 1
     397       26       92 1
     398      369      373 1
     399      299      169 1
     400      254      188 1
     401       11      113 1
     402      345      349 1
     403       23      153 1
     404       26      141 1
     405      408      402 1
     406      218      173 1
     407       65       22 1
     408      249      183 1
     409        9      145 1
     410      266      202 1
     411      410      414 1
     412      457      459 1
     413       12      159 1
     414      276      175 1
     415      240      174 1
     416        6      133 1
     417        5      121 1
     418       21      140 1
     419      329      332 1
     420      417      420 1
     421      466      472 1
     422      261      192 1
     423      279      172 1
     424      409      413 1
     425       43       64 1
     426      272      162 1
     427       31      157 1
     428      294      193 1
     429      386      392 1
     430       44      116 1
     431      252      186 1
     432      433      437 1
     433      283      180 1
     434      212      167 1
     435      322      326 1
     436      377      381 1
     437       18      125 1
     438      247      181 1
     439      251      185 1
     440       70       34 1
     441      238      172 1
     442      295      192 1
     443      449      453 1
     444       43      117 1
     445       18      134 1
     446        1      108 1
     447      233      168 1
     448       32      147 1
     449       23      150 1
     450        4      127 1
     451      321      323 1
     452      405      401 1
     453      354      360 1
     454       72       25 1
     455      353      354 1
     456      282      178 1
     457      296      169 1
     458       38       97 1
     459      293      165 1
     460       10       75 1
     461      205      161 1
     462       44      129 1
     463      310      183 1
     464      235      170 1
     465      258      189 1
     466       70        1 1
     467      270      190 1
     468      289      183 1
     469      269      161 1
     470      288      203 1
     471       11       77 1
     472       43      128 1
     473        4      124 1
     474      288      184 1
     475      219      188 1
     476      291      184 1
     477      208      163 1
     478       30       99 1
     479      346      351 1
     480      369      370 1
     481      203      224 1
     482      313      183 1
@<TRIPOS>SUBSTRUCTURE
       1 RES             1 RESIDUE    0 **** ROOT      0
