@<TRIPOS>MOLECULE
RES
416 0 1 0 1
SMALL
NO_CHARGES
@<TRIPOS>CRYSIN
   25.9710    31.5140    17.9291    90.0000    90.0000    90.0000  1  1
@<TRIPOS>ATOM
       1 V            4.7030    20.3790     8.5449 V             1 RES     
       2 Te           7.1600    26.5510     8.6089 Te            1 RES     
       3 Mo           8.4350     6.3680     8.5749 Mo            1 RES     
       4 Mo           9.2090     2.8620     9.6919 Mo            1 RES     
       5 Mo          10.6800    26.0070     9.6549 Mo            1 RES     
       6 V           12.7890    23.1520     8.5689 V             1 RES     
       7 Mo          14.3500    26.4430     9.6919 Mo            1 RES     
       8 Mo           4.7110    23.9370     9.6379 Mo            1 RES     
       9 Nb          11.9750     5.5060     9.5019 Nb            1 RES     
      10 Mo          15.2740     7.0560     8.5449 Mo            1 RES     
      11 Mo           2.2450    14.2060     8.6109 Mo            1 RES     
      12 Mo          12.8170    13.2280     8.6089 Mo            1 RES     
      13 Mo          17.7320     0.8830     8.6109 Mo            1 RES     
      14 Nb           0.9680     7.7430     8.5769 Nb            1 RES     
      15 Te          11.5410    19.6920     8.5749 Te            1 RES     
      16 Mo          19.0090    21.0670     8.5769 Mo            1 RES     
      17 V            0.1950    11.2500     9.6929 V             1 RES     
      18 Mo          10.7680    16.1860     9.6919 Mo            1 RES     
      19 Mo          19.7820    24.5730     9.6939 Mo            1 RES     
      20 Mo          19.8690    14.7530     9.6549 Mo            1 RES     
      21 Mo           9.2970    12.6830     9.6539 Mo            1 RES     
      22 Mo           0.1080     1.4290     9.6559 Mo            1 RES     
      23 Mo          17.7610    17.6070     8.5689 Mo            1 RES     
      24 Nb           7.1880     9.8290     8.5689 Nb            1 RES     
      25 Mo           2.2170     4.2840     8.5699 Mo            1 RES     
      26 Te          16.1990    14.3170     9.6919 Te            1 RES     
      27 V            5.6280    13.1190     9.6919 V             1 RES     
      28 Te           3.7780     0.9930     9.6919 Te            1 RES     
      29 V            4.6930    16.8220     9.6379 V             1 RES     
      30 V           15.2660    10.6130     9.6369 V             1 RES     
      31 Mo          15.2840     3.4990     9.6379 Mo            1 RES     
      32 Nb          18.5720     8.6070     9.5009 Nb            1 RES     
      33 Mo           8.0010    18.8300     9.5019 Mo            1 RES     
      34 Nb           1.4050    21.9300     9.5019 Nb            1 RES     
      35 Mo          12.3070     2.2180     8.6559 Mo            1 RES     
      36 Mo          18.2420    11.8960     8.6549 Mo            1 RES     
      37 Nb           7.6700    15.5410     8.6559 Nb            1 RES     
      38 Mo           1.7350    25.2190     8.6559 Mo            1 RES     
      39 Mo          16.2470    23.4470     9.1559 Mo            1 RES     
      40 Nb          14.3020    17.3120     9.1549 Nb            1 RES     
      41 Mo           3.7290    10.1230     9.1549 Mo            1 RES     
      42 Te           5.6750     3.9880     9.1549 Te            1 RES     
      43 Mo           4.7030     7.0560     9.6209 Mo            1 RES     
      44 Mo          15.2750    20.3790     9.6199 Mo            1 RES     
      45 O            4.7030    20.3790     6.8729 O             1 RES     
      46 O            4.7030     7.0560    11.2889 O             1 RES     
      47 O            7.1490    26.5260     6.9359 O             1 RES     
      48 O            8.4420     6.3070     6.9039 O             1 RES     
      49 O            9.2070     2.8530    11.3709 O             1 RES     
      50 O           10.7060    26.0160    11.3329 O             1 RES     
      51 O           12.7460    23.2320     6.8989 O             1 RES     
      52 O           14.3070    26.4150    11.3689 O             1 RES     
      53 O           12.3110     2.2170     6.9449 O             1 RES     
      54 O            4.7230    23.9100    11.3159 O             1 RES     
      55 O           11.9910     5.5850    11.1779 O             1 RES     
      56 O           16.3880    23.6440    10.9759 O             1 RES     
      57 O           15.6880     5.2380     9.1169 O             1 RES     
      58 O           16.8100     2.5560     9.1329 O             1 RES     
      59 O            5.5330     0.8080     9.1519 O             1 RES     
      60 O           16.9490    21.3330     9.0229 O             1 RES     
      61 O           19.4750     1.6110     9.1459 O             1 RES     
      62 O           21.0790    26.0600     9.2509 O             1 RES     
      63 O           18.9700    22.9550     9.1579 O             1 RES     
      64 O            3.9520     5.3080     9.0079 O             1 RES     
      65 O            0.8230     3.1020     9.1799 O             1 RES     
      66 O            0.3830    23.6980     9.1359 O             1 RES     
      67 O           20.9400    21.0700     9.0189 O             1 RES     
      68 O            1.9210     0.6760     9.0619 O             1 RES     
      69 O            2.7590    23.4570     9.1409 O             1 RES     
      70 O            2.7820    20.8180     8.9549 O             1 RES     
      71 O            1.3080     5.9100     8.9759 O             1 RES     
      72 O            3.5960     2.8390     9.0709 O             1 RES     
      73 O            3.6540    25.6560     9.2509 O             1 RES     
      74 O            7.9280     1.6790     9.1059 O             1 RES     
      75 O           15.2740     7.0560     6.8729 O             1 RES     
      76 O           15.2750    20.3790    11.2889 O             1 RES     
      77 O            2.2570    14.2300     6.9369 O             1 RES     
      78 O           12.8290    13.2040     6.9349 O             1 RES     
      79 O           17.7210     0.9060     6.9369 O             1 RES     
      80 O            0.9610     7.8040     6.9059 O             1 RES     
      81 O           11.5350    19.6310     6.9039 O             1 RES     
      82 O           19.0160    21.1280     6.9059 O             1 RES     
      83 O            0.1950    11.2590    11.3719 O             1 RES     
      84 O           10.7690    16.1760    11.3709 O             1 RES     
      85 O           19.7820    24.5820    11.3729 O             1 RES     
      86 O           19.8430    14.7420    11.3329 O             1 RES     
      87 O            9.2710    12.6930    11.3319 O             1 RES     
      88 O            0.1340     1.4190    11.3329 O             1 RES     
      89 O           17.8050    17.5290     6.8989 O             1 RES     
      90 O            7.2310     9.9080     6.8989 O             1 RES     
      91 O            2.1720     4.2050     6.8989 O             1 RES     
      92 O           16.2400    14.3450    11.3679 O             1 RES     
      93 O            5.6710    13.0910    11.3679 O             1 RES     
      94 O            3.7380     1.0220    11.3679 O             1 RES     
      95 O           18.2380    11.8980     6.9439 O             1 RES     
      96 O            7.6650    15.5400     6.9449 O             1 RES     
      97 O            1.7390    25.2220     6.9439 O             1 RES     
      98 O            4.6800    16.8490    11.3159 O             1 RES     
      99 O           15.2540    10.5870    11.3149 O             1 RES     
     100 O           15.2970     3.5260    11.3159 O             1 RES     
     101 O           18.5550     8.5310    11.1769 O             1 RES     
     102 O            7.9860    18.9080    11.1779 O             1 RES     
     103 O            1.4210    21.8530    11.1779 O             1 RES     
     104 O           14.1610    17.1140    10.9739 O             1 RES     
     105 O            3.5890    10.3200    10.9749 O             1 RES     
     106 O            5.8160     3.7910    10.9749 O             1 RES     
     107 O           14.8610     8.8750     9.1169 O             1 RES     
     108 O            4.2890    18.5610     9.1169 O             1 RES     
     109 O            5.1160    22.1980     9.1169 O             1 RES     
     110 O           13.7390    11.5560     9.1339 O             1 RES     
     111 O            3.1670    15.8790     9.1329 O             1 RES     
     112 O            6.2380    24.8790     9.1339 O             1 RES     
     113 O            3.8730    13.3040     9.1539 O             1 RES     
     114 O           14.4450    14.1320     9.1519 O             1 RES     
     115 O           16.1040    26.6280     9.1539 O             1 RES     
     116 O           13.6000    19.4250     9.0219 O             1 RES     
     117 O            3.0280     8.0100     9.0229 O             1 RES     
     118 O            6.3770     6.1020     9.0219 O             1 RES     
     119 O           11.0740    12.5020     9.1439 O             1 RES     
     120 O            0.5030    14.9340     9.1459 O             1 RES     
     121 O            8.9030    25.8250     9.1449 O             1 RES     
     122 O            9.4700    14.7000     9.2499 O             1 RES     
     123 O           20.0420    12.7370     9.2499 O             1 RES     
     124 O           10.5070     1.3760     9.2509 O             1 RES     
     125 O           11.5790    17.8040     9.1559 O             1 RES     
     126 O            1.0070     9.6310     9.1579 O             1 RES     
     127 O            8.3970     4.4810     9.1559 O             1 RES     
     128 O            5.4520     8.8040     9.0069 O             1 RES     
     129 O           16.0250    18.6320     9.0069 O             1 RES     
     130 O           14.5250    22.1270     9.0079 O             1 RES     
     131 O            8.5820    11.0110     9.1779 O             1 RES     
     132 O           19.1540    16.4250     9.1799 O             1 RES     
     133 O           11.3950    24.3340     9.1789 O             1 RES     
     134 O            9.0230    17.0620     9.1369 O             1 RES     
     135 O           19.5940    10.3750     9.1359 O             1 RES     
     136 O           10.9540     3.7380     9.1369 O             1 RES     
     137 O            9.6100    19.6890     9.0169 O             1 RES     
     138 O           20.1810     7.7470     9.0189 O             1 RES     
     139 O           10.3670     6.3660     9.0169 O             1 RES     
     140 O            7.4840    13.4370     9.0599 O             1 RES     
     141 O           18.0560    13.9990     9.0619 O             1 RES     
     142 O           12.4930     0.1140     9.0609 O             1 RES     
     143 O            6.6460    17.3030     9.1439 O             1 RES     
     144 O           17.2180    10.1340     9.1399 O             1 RES     
     145 O           13.3310     3.9790     9.1439 O             1 RES     
     146 O            6.6240    19.9410     8.9549 O             1 RES     
     147 O           17.1950     7.4950     8.9549 O             1 RES     
     148 O           13.3530     6.6180     8.9549 O             1 RES     
     149 O            8.0960     8.2020     8.9749 O             1 RES     
     150 O           18.6690    19.2340     8.9759 O             1 RES     
     151 O           11.8810    21.5250     8.9749 O             1 RES     
     152 O            5.8090    11.2730     9.0709 O             1 RES     
     153 O           16.3810    16.1630     9.0699 O             1 RES     
     154 O           14.1680    24.5970     9.0709 O             1 RES     
     155 O            5.7520    15.1040     9.2509 O             1 RES     
     156 O           16.3240    12.3330     9.2499 O             1 RES     
     157 O           14.2260     1.7800     9.2509 O             1 RES     
     158 O            1.4770    12.4330     9.1089 O             1 RES     
     159 O           12.0490    15.0020     9.1059 O             1 RES     
     160 O           18.2880    25.8550     9.0999 O             1 RES     
     161 Mo           4.7030    20.3790    12.5481 Mo            1 RES     
     162 V            7.1600    26.5510    12.6121 V             1 RES     
     163 Mo           8.4350     6.3680    12.5781 Mo            1 RES     
     164 Mo           9.2090     2.8620    13.6951 Mo            1 RES     
     165 Mo          10.6800    26.0070    13.6581 Mo            1 RES     
     166 Mo          12.7890    23.1520    12.5721 Mo            1 RES     
     167 Mo          14.3500    26.4430    13.6951 Mo            1 RES     
     168 Mo           4.7110    23.9370    13.6411 Mo            1 RES     
     169 Te          11.9750     5.5060    13.5051 Te            1 RES     
     170 Mo          15.2740     7.0560    12.5481 Mo            1 RES     
     171 Mo           2.2450    14.2060    12.6141 Mo            1 RES     
     172 V           12.8170    13.2280    12.6121 V             1 RES     
     173 Mo          17.7320     0.8830    12.6141 Mo            1 RES     
     174 Mo           0.9680     7.7430    12.5801 Mo            1 RES     
     175 V           11.5410    19.6920    12.5781 V             1 RES     
     176 V           19.0090    21.0670    12.5801 V             1 RES     
     177 Te           0.1950    11.2500    13.6961 Te            1 RES     
     178 Te          10.7680    16.1860    13.6951 Te            1 RES     
     179 Mo          19.7820    24.5730    13.6971 Mo            1 RES     
     180 V           19.8690    14.7530    13.6581 V             1 RES     
     181 Mo           9.2970    12.6830    13.6571 Mo            1 RES     
     182 Nb           0.1080     1.4290    13.6591 Nb            1 RES     
     183 Mo          17.7610    17.6070    12.5721 Mo            1 RES     
     184 Mo           7.1880     9.8290    12.5721 Mo            1 RES     
     185 Mo           2.2170     4.2840    12.5731 Mo            1 RES     
     186 V           16.1990    14.3170    13.6951 V             1 RES     
     187 Nb           5.6280    13.1190    13.6951 Nb            1 RES     
     188 Mo           3.7780     0.9930    13.6951 Mo            1 RES     
     189 Mo           4.6930    16.8220    13.6411 Mo            1 RES     
     190 V           15.2660    10.6130    13.6401 V             1 RES     
     191 Mo          15.2840     3.4990    13.6411 Mo            1 RES     
     192 Mo          18.5720     8.6070    13.5041 Mo            1 RES     
     193 V            8.0010    18.8300    13.5051 V             1 RES     
     194 V            1.4050    21.9300    13.5051 V             1 RES     
     195 Mo          12.3070     2.2180    12.6591 Mo            1 RES     
     196 Mo          18.2420    11.8960    12.6581 Mo            1 RES     
     197 Mo           7.6700    15.5410    12.6591 Mo            1 RES     
     198 Te           1.7350    25.2190    12.6591 Te            1 RES     
     199 V           16.2470    23.4470    13.1591 V             1 RES     
     200 Te          14.3020    17.3120    13.1581 Te            1 RES     
     201 Te           3.7290    10.1230    13.1581 Te            1 RES     
     202 Te           5.6750     3.9880    13.1581 Te            1 RES     
     203 Mo           4.7030     7.0560    13.6241 Mo            1 RES     
     204 Mo          15.2750    20.3790    13.6231 Mo            1 RES     
     205 O            4.7030    20.3790    10.8761 O             1 RES     
     206 O            4.7030     7.0560    15.2921 O             1 RES     
     207 O            7.1490    26.5260    10.9391 O             1 RES     
     208 O            8.4420     6.3070    10.9071 O             1 RES     
     209 O            9.2070     2.8530    15.3741 O             1 RES     
     210 O           10.7060    26.0160    15.3361 O             1 RES     
     211 O           12.7460    23.2320    10.9021 O             1 RES     
     212 O           14.3070    26.4150    15.3721 O             1 RES     
     213 O           12.3110     2.2170    10.9481 O             1 RES     
     214 O            4.7230    23.9100    15.3191 O             1 RES     
     215 O           11.9910     5.5850    15.1811 O             1 RES     
     216 O           16.3880    23.6440    14.9791 O             1 RES     
     217 O           15.6880     5.2380    13.1201 O             1 RES     
     218 O           16.8100     2.5560    13.1361 O             1 RES     
     219 O            5.5330     0.8080    13.1551 O             1 RES     
     220 O           16.9490    21.3330    13.0261 O             1 RES     
     221 O           19.4750     1.6110    13.1491 O             1 RES     
     222 O           21.0790    26.0600    13.2541 O             1 RES     
     223 O           18.9700    22.9550    13.1611 O             1 RES     
     224 O            3.9520     5.3080    13.0111 O             1 RES     
     225 O            0.8230     3.1020    13.1831 O             1 RES     
     226 O            0.3830    23.6980    13.1391 O             1 RES     
     227 O           20.9400    21.0700    13.0221 O             1 RES     
     228 O            1.9210     0.6760    13.0651 O             1 RES     
     229 O            2.7590    23.4570    13.1441 O             1 RES     
     230 O            2.7820    20.8180    12.9581 O             1 RES     
     231 O            1.3080     5.9100    12.9791 O             1 RES     
     232 O            3.5960     2.8390    13.0741 O             1 RES     
     233 O            3.6540    25.6560    13.2541 O             1 RES     
     234 O            7.9280     1.6790    13.1091 O             1 RES     
     235 O           15.2740     7.0560    10.8761 O             1 RES     
     236 O           15.2750    20.3790    15.2921 O             1 RES     
     237 O            2.2570    14.2300    10.9401 O             1 RES     
     238 O           12.8290    13.2040    10.9381 O             1 RES     
     239 O           17.7210     0.9060    10.9401 O             1 RES     
     240 O            0.9610     7.8040    10.9091 O             1 RES     
     241 O           11.5350    19.6310    10.9071 O             1 RES     
     242 O           19.0160    21.1280    10.9091 O             1 RES     
     243 O            0.1950    11.2590    15.3751 O             1 RES     
     244 O           10.7690    16.1760    15.3741 O             1 RES     
     245 O           19.7820    24.5820    15.3761 O             1 RES     
     246 O           19.8430    14.7420    15.3361 O             1 RES     
     247 O            9.2710    12.6930    15.3351 O             1 RES     
     248 O            0.1340     1.4190    15.3361 O             1 RES     
     249 O           17.8050    17.5290    10.9021 O             1 RES     
     250 O            7.2310     9.9080    10.9021 O             1 RES     
     251 O            2.1720     4.2050    10.9021 O             1 RES     
     252 O           16.2400    14.3450    15.3711 O             1 RES     
     253 O            5.6710    13.0910    15.3711 O             1 RES     
     254 O            3.7380     1.0220    15.3711 O             1 RES     
     255 O           18.2380    11.8980    10.9471 O             1 RES     
     256 O            7.6650    15.5400    10.9481 O             1 RES     
     257 O            1.7390    25.2220    10.9471 O             1 RES     
     258 O            4.6800    16.8490    15.3191 O             1 RES     
     259 O           15.2540    10.5870    15.3181 O             1 RES     
     260 O           15.2970     3.5260    15.3191 O             1 RES     
     261 O           18.5550     8.5310    15.1801 O             1 RES     
     262 O            7.9860    18.9080    15.1811 O             1 RES     
     263 O            1.4210    21.8530    15.1811 O             1 RES     
     264 O           14.1610    17.1140    14.9771 O             1 RES     
     265 O            3.5890    10.3200    14.9781 O             1 RES     
     266 O            5.8160     3.7910    14.9781 O             1 RES     
     267 O           14.8610     8.8750    13.1201 O             1 RES     
     268 O            4.2890    18.5610    13.1201 O             1 RES     
     269 O            5.1160    22.1980    13.1201 O             1 RES     
     270 O           13.7390    11.5560    13.1371 O             1 RES     
     271 O            3.1670    15.8790    13.1361 O             1 RES     
     272 O            6.2380    24.8790    13.1371 O             1 RES     
     273 O            3.8730    13.3040    13.1571 O             1 RES     
     274 O           14.4450    14.1320    13.1551 O             1 RES     
     275 O           16.1040    26.6280    13.1571 O             1 RES     
     276 O           13.6000    19.4250    13.0251 O             1 RES     
     277 O            3.0280     8.0100    13.0261 O             1 RES     
     278 O            6.3770     6.1020    13.0251 O             1 RES     
     279 O           11.0740    12.5020    13.1471 O             1 RES     
     280 O            0.5030    14.9340    13.1491 O             1 RES     
     281 O            8.9030    25.8250    13.1481 O             1 RES     
     282 O            9.4700    14.7000    13.2531 O             1 RES     
     283 O           20.0420    12.7370    13.2531 O             1 RES     
     284 O           10.5070     1.3760    13.2541 O             1 RES     
     285 O           11.5790    17.8040    13.1591 O             1 RES     
     286 O            1.0070     9.6310    13.1611 O             1 RES     
     287 O            8.3970     4.4810    13.1591 O             1 RES     
     288 O            5.4520     8.8040    13.0101 O             1 RES     
     289 O           16.0250    18.6320    13.0101 O             1 RES     
     290 O           14.5250    22.1270    13.0111 O             1 RES     
     291 O            8.5820    11.0110    13.1811 O             1 RES     
     292 O           19.1540    16.4250    13.1831 O             1 RES     
     293 O           11.3950    24.3340    13.1821 O             1 RES     
     294 O            9.0230    17.0620    13.1401 O             1 RES     
     295 O           19.5940    10.3750    13.1391 O             1 RES     
     296 O           10.9540     3.7380    13.1401 O             1 RES     
     297 O            9.6100    19.6890    13.0201 O             1 RES     
     298 O           20.1810     7.7470    13.0221 O             1 RES     
     299 O           10.3670     6.3660    13.0201 O             1 RES     
     300 O            7.4840    13.4370    13.0631 O             1 RES     
     301 O           18.0560    13.9990    13.0651 O             1 RES     
     302 O           12.4930     0.1140    13.0641 O             1 RES     
     303 O            6.6460    17.3030    13.1471 O             1 RES     
     304 O           17.2180    10.1340    13.1431 O             1 RES     
     305 O           13.3310     3.9790    13.1471 O             1 RES     
     306 O            6.6240    19.9410    12.9581 O             1 RES     
     307 O           17.1950     7.4950    12.9581 O             1 RES     
     308 O           13.3530     6.6180    12.9581 O             1 RES     
     309 O            8.0960     8.2020    12.9781 O             1 RES     
     310 O           18.6690    19.2340    12.9791 O             1 RES     
     311 O           11.8810    21.5250    12.9781 O             1 RES     
     312 O            5.8090    11.2730    13.0741 O             1 RES     
     313 O           16.3810    16.1630    13.0731 O             1 RES     
     314 O           14.1680    24.5970    13.0741 O             1 RES     
     315 O            5.7520    15.1040    13.2541 O             1 RES     
     316 O           16.3240    12.3330    13.2531 O             1 RES     
     317 O           14.2260     1.7800    13.2541 O             1 RES     
     318 O            1.4770    12.4330    13.1121 O             1 RES     
     319 O           12.0490    15.0020    13.1091 O             1 RES     
     320 O           18.2880    25.8550    13.1031 O             1 RES     
     321 C           13.8162    18.0524    19.7574 C             1 RES     
     322 C           12.5993    17.3694    19.7541 C             1 RES     
     323 C           12.5842    15.9745    19.7723 C             1 RES     
     324 C           13.7827    15.2634    19.7527 C             1 RES     
     325 C           14.9996    15.9463    19.7429 C             1 RES     
     326 C           15.0149    17.3413    19.7568 C             1 RES     
     327 H           13.8282    19.1392    19.7632 H             1 RES     
     328 H           11.6651    17.9231    19.7384 H             1 RES     
     329 H           11.6366    15.4424    19.8020 H             1 RES     
     330 H           13.7703    14.1765    19.7446 H             1 RES     
     331 H           15.9337    15.3923    19.7289 H             1 RES     
     332 H           15.9629    17.8736    19.7640 H             1 RES     
     333 C           11.5958    23.3716    19.0970 C             1 RES     
     334 C           10.3947    24.0819    19.0938 C             1 RES     
     335 C            9.1803    23.3954    19.1119 C             1 RES     
     336 C            9.1661    22.0018    19.0924 C             1 RES     
     337 C           10.3672    21.2915    19.0826 C             1 RES     
     338 C           11.5818    21.9779    19.0965 C             1 RES     
     339 H           12.5422    23.9062    19.1029 H             1 RES     
     340 H           10.4052    25.1677    19.0781 H             1 RES     
     341 H            8.2447    23.9484    19.1417 H             1 RES     
     342 H            8.2196    21.4676    19.0843 H             1 RES     
     343 H           10.3563    20.2056    19.0686 H             1 RES     
     344 H           12.5177    21.4247    19.1037 H             1 RES     
     345 C           18.6399    23.3442    19.7275 C             1 RES     
     346 C           17.4400    24.0567    19.7243 C             1 RES     
     347 C           16.2244    23.3724    19.7424 C             1 RES     
     348 C           16.2077    21.9789    19.7229 C             1 RES     
     349 C           17.4075    21.2663    19.7131 C             1 RES     
     350 C           18.6234    21.9505    19.7270 C             1 RES     
     351 H           19.5872    23.8771    19.7334 H             1 RES     
     352 H           17.4526    25.1425    19.7086 H             1 RES     
     353 H           15.2899    23.9271    19.7722 H             1 RES     
     354 H           15.2602    21.4463    19.7147 H             1 RES     
     355 H           17.3946    20.1805    19.6991 H             1 RES     
     356 H           19.5582    21.3956    19.7342 H             1 RES     
     357 C            9.7307     9.2689    19.7417 C             1 RES     
     358 C           11.1237     9.3498    19.7384 C             1 RES     
     359 C           11.7484    10.5972    19.7566 C             1 RES     
     360 C           10.9824    11.7615    19.7371 C             1 RES     
     361 C            9.5894    11.6806    19.7272 C             1 RES     
     362 C            8.9645    10.4333    19.7411 C             1 RES     
     363 H            9.2437     8.2972    19.7475 H             1 RES     
     364 H           11.7209     8.4429    19.7228 H             1 RES     
     365 H           12.8333    10.6604    19.7864 H             1 RES     
     366 H           11.4698    12.7330    19.7289 H             1 RES     
     367 H            8.9924    12.5878    19.7132 H             1 RES     
     368 H            7.8792    10.3701    19.7484 H             1 RES     
     369 C            5.4559     7.9178    19.7417 C             1 RES     
     370 C            4.6613     9.0649    19.7384 C             1 RES     
     371 C            3.2711     8.9485    19.7566 C             1 RES     
     372 C            2.6761     7.6883    19.7371 C             1 RES     
     373 C            3.4706     6.5412    19.7272 C             1 RES     
     374 C            4.8609     6.6574    19.7411 C             1 RES     
     375 H            6.5390     8.0082    19.7475 H             1 RES     
     376 H            5.1245    10.0471    19.7228 H             1 RES     
     377 H            2.6522     9.8418    19.7864 H             1 RES     
     378 H            1.5929     7.5983    19.7289 H             1 RES     
     379 H            3.0071     5.5591    19.7132 H             1 RES     
     380 H            5.4801     5.7638    19.7484 H             1 RES     
     381 C           10.9155     3.9141    19.1025 C             1 RES     
     382 C           10.1365     5.0719    19.0992 C             1 RES     
     383 C            8.7450     4.9743    19.1174 C             1 RES     
     384 C            8.1329     3.7223    19.0979 C             1 RES     
     385 C            8.9118     2.5645    19.0880 C             1 RES     
     386 C           10.3035     2.6618    19.1019 C             1 RES     
     387 H           11.9998     3.9898    19.1084 H             1 RES     
     388 H           10.6130     6.0477    19.0836 H             1 RES     
     389 H            8.1382     5.8759    19.1472 H             1 RES     
     390 H            7.0486     3.6470    19.0897 H             1 RES     
     391 H            8.4350     1.5888    19.0741 H             1 RES     
     392 H           10.9105     1.7599    19.1092 H             1 RES     
     393 C           17.8752     4.9725    19.7438 C             1 RES     
     394 C           16.4824     5.0590    19.7405 C             1 RES     
     395 C           15.7130     3.8953    19.7587 C             1 RES     
     396 C           16.3341     2.6478    19.7392 C             1 RES     
     397 C           17.7268     2.5613    19.7293 C             1 RES     
     398 C           18.4965     3.7249    19.7432 C             1 RES     
     399 H           18.4749     5.8791    19.7496 H             1 RES     
     400 H           15.9981     6.0309    19.7249 H             1 RES     
     401 H           14.6284     3.9625    19.7885 H             1 RES     
     402 H           15.7340     1.7415    19.7310 H             1 RES     
     403 H           18.2109     1.5892    19.7153 H             1 RES     
     404 H           19.5816     3.6577    19.7505 H             1 RES     
     405 C            3.7532    22.8803    19.7450 C             1 RES     
     406 C            2.5402    22.1905    19.7417 C             1 RES     
     407 C            2.5330    20.7955    19.7599 C             1 RES     
     408 C            3.7355    20.0912    19.7404 C             1 RES     
     409 C            4.9485    20.7810    19.7305 C             1 RES     
     410 C            4.9560    22.1760    19.7444 C             1 RES     
     411 H            3.7591    23.9673    19.7508 H             1 RES     
     412 H            1.6029    22.7389    19.7260 H             1 RES     
     413 H            1.5884    20.2581    19.7897 H             1 RES     
     414 H            3.7291    19.0043    19.7322 H             1 RES     
     415 H            5.8857    20.2322    19.7165 H             1 RES     
     416 H            5.9009    22.7136    19.7516 H             1 RES     
@<TRIPOS>BOND
@<TRIPOS>SUBSTRUCTURE
       1 RES             1 RESIDUE    0 **** ROOT      0
