@<TRIPOS>MOLECULE
RES
512 534 1 0 1
SMALL
NO_CHARGES
@<TRIPOS>CRYSIN
   25.9710    31.5140    17.0034    90.0000    90.0000    90.0000  1  1
@<TRIPOS>ATOM
       1 Mo          -4.7303    20.4074    -8.5361 Mo            1 RES     
       2 Nb          -7.1873    26.5794    -8.6001 Nb            1 RES     
       3 V           -8.4623     6.3964    -8.5661 V             1 RES     
       4 V           -9.2363     2.8904    -9.6831 V             1 RES     
       5 Mo         -10.7073    26.0354    -9.6461 Mo            1 RES     
       6 Mo         -12.8163    23.1804    -8.5601 Mo            1 RES     
       7 Nb         -14.3773    26.4714    -9.6831 Nb            1 RES     
       8 Mo          -4.7383    23.9654    -9.6291 Mo            1 RES     
       9 Nb         -12.0023     5.5344    -9.4931 Nb            1 RES     
      10 Mo         -15.3013     7.0844    -8.5361 Mo            1 RES     
      11 Mo          -2.2723    14.2344    -8.6020 Mo            1 RES     
      12 V          -12.8443    13.2564    -8.6001 V             1 RES     
      13 Mo         -17.7593     0.9114    -8.6021 Mo            1 RES     
      14 Mo          -0.9953     7.7714    -8.5680 Mo            1 RES     
      15 V          -11.5683    19.7204    -8.5661 V             1 RES     
      16 Mo         -19.0363    21.0954    -8.5681 Mo            1 RES     
      17 Mo          -0.2223    11.2784    -9.6840 Mo            1 RES     
      18 Mo         -10.7953    16.2144    -9.6831 Mo            1 RES     
      19 Mo         -19.8093    24.6014    -9.6851 Mo            1 RES     
      20 Nb         -19.8963    14.7814    -9.6461 Nb            1 RES     
      21 Nb          -9.3243    12.7114    -9.6451 Nb            1 RES     
      22 Nb          -0.1353     1.4574    -9.6470 Nb            1 RES     
      23 Nb         -17.7883    17.6354    -8.5601 Nb            1 RES     
      24 Mo          -7.2153     9.8574    -8.5601 Mo            1 RES     
      25 Mo          -2.2443     4.3124    -8.5610 Mo            1 RES     
      26 Mo         -16.2263    14.3454    -9.6831 Mo            1 RES     
      27 Mo          -5.6553    13.1474    -9.6831 Mo            1 RES     
      28 Mo          -3.8053     1.0214    -9.6830 Mo            1 RES     
      29 V           -4.7203    16.8504    -9.6291 V             1 RES     
      30 Mo         -15.2933    10.6414    -9.6281 Mo            1 RES     
      31 V          -15.3113     3.5274    -9.6291 V             1 RES     
      32 V          -18.5993     8.6354    -9.4921 V             1 RES     
      33 Mo          -8.0283    18.8584    -9.4931 Mo            1 RES     
      34 Mo          -1.4323    21.9584    -9.4930 Mo            1 RES     
      35 Mo         -12.3343     2.2464    -8.6471 Mo            1 RES     
      36 Mo         -18.2693    11.9244    -8.6461 Mo            1 RES     
      37 Mo          -7.6973    15.5694    -8.6471 Mo            1 RES     
      38 Mo          -1.7623    25.2474    -8.6470 Mo            1 RES     
      39 Mo         -16.2743    23.4754    -9.1471 Mo            1 RES     
      40 Mo         -14.3293    17.3404    -9.1461 Mo            1 RES     
      41 Mo          -3.7563    10.1514    -9.1461 Mo            1 RES     
      42 Mo          -5.7023     4.0164    -9.1461 Mo            1 RES     
      43 Mo          -4.7303     7.0844    -9.6121 Mo            1 RES     
      44 Mo         -15.3023    20.4074    -9.6111 Mo            1 RES     
      45 O           -4.7303    20.4074    -6.8641 O             1 RES     
      46 O           -4.7303     7.0844   -11.2801 O             1 RES     
      47 O           -7.1763    26.5544    -6.9271 O             1 RES     
      48 O           -8.4693     6.3354    -6.8951 O             1 RES     
      49 O           -9.2343     2.8814   -11.3621 O             1 RES     
      50 O          -10.7333    26.0444   -11.3241 O             1 RES     
      51 O          -12.7733    23.2604    -6.8901 O             1 RES     
      52 O          -14.3343    26.4434   -11.3601 O             1 RES     
      53 O          -12.3383     2.2454    -6.9361 O             1 RES     
      54 O           -4.7503    23.9384   -11.3071 O             1 RES     
      55 O          -12.0183     5.6134   -11.1691 O             1 RES     
      56 O          -16.4153    23.6724   -10.9671 O             1 RES     
      57 O          -15.7153     5.2664    -9.1081 O             1 RES     
      58 O          -16.8373     2.5844    -9.1241 O             1 RES     
      59 O           -5.5603     0.8364    -9.1431 O             1 RES     
      60 O          -16.9763    21.3614    -9.0141 O             1 RES     
      61 O          -19.5023     1.6394    -9.1371 O             1 RES     
      62 O          -21.1063    26.0884    -9.2421 O             1 RES     
      63 O          -18.9973    22.9834    -9.1491 O             1 RES     
      64 O           -3.9793     5.3364    -8.9991 O             1 RES     
      65 O           -0.8503     3.1304    -9.1710 O             1 RES     
      66 O           -0.4103    23.7264    -9.1270 O             1 RES     
      67 O          -20.9673    21.0984    -9.0101 O             1 RES     
      68 O           -1.9483     0.7044    -9.0530 O             1 RES     
      69 O           -2.7863    23.4854    -9.1320 O             1 RES     
      70 O           -2.8093    20.8464    -8.9460 O             1 RES     
      71 O           -1.3353     5.9384    -8.9670 O             1 RES     
      72 O           -3.6233     2.8674    -9.0620 O             1 RES     
      73 O           -3.6813    25.6844    -9.2421 O             1 RES     
      74 O           -7.9553     1.7074    -9.0971 O             1 RES     
      75 O          -15.3013     7.0844    -6.8641 O             1 RES     
      76 O          -15.3023    20.4074   -11.2801 O             1 RES     
      77 O           -2.2843    14.2584    -6.9280 O             1 RES     
      78 O          -12.8563    13.2324    -6.9261 O             1 RES     
      79 O          -17.7483     0.9344    -6.9281 O             1 RES     
      80 O           -0.9883     7.8324    -6.8970 O             1 RES     
      81 O          -11.5623    19.6594    -6.8951 O             1 RES     
      82 O          -19.0433    21.1564    -6.8971 O             1 RES     
      83 O           -0.2223    11.2874   -11.3630 O             1 RES     
      84 O          -10.7963    16.2044   -11.3621 O             1 RES     
      85 O          -19.8093    24.6104   -11.3641 O             1 RES     
      86 O          -19.8703    14.7704   -11.3241 O             1 RES     
      87 O           -9.2983    12.7214   -11.3231 O             1 RES     
      88 O           -0.1613     1.4474   -11.3240 O             1 RES     
      89 O          -17.8323    17.5574    -6.8901 O             1 RES     
      90 O           -7.2583     9.9364    -6.8901 O             1 RES     
      91 O           -2.1993     4.2334    -6.8900 O             1 RES     
      92 O          -16.2673    14.3734   -11.3591 O             1 RES     
      93 O           -5.6983    13.1194   -11.3591 O             1 RES     
      94 O           -3.7653     1.0504   -11.3591 O             1 RES     
      95 O          -18.2653    11.9264    -6.9351 O             1 RES     
      96 O           -7.6923    15.5684    -6.9361 O             1 RES     
      97 O           -1.7663    25.2504    -6.9350 O             1 RES     
      98 O           -4.7073    16.8774   -11.3071 O             1 RES     
      99 O          -15.2813    10.6154   -11.3061 O             1 RES     
     100 O          -15.3243     3.5544   -11.3071 O             1 RES     
     101 O          -18.5823     8.5594   -11.1681 O             1 RES     
     102 O           -8.0133    18.9364   -11.1691 O             1 RES     
     103 O           -1.4483    21.8814   -11.1690 O             1 RES     
     104 O          -14.1883    17.1424   -10.9651 O             1 RES     
     105 O           -3.6163    10.3484   -10.9660 O             1 RES     
     106 O           -5.8433     3.8194   -10.9661 O             1 RES     
     107 O          -14.8883     8.9034    -9.1081 O             1 RES     
     108 O           -4.3163    18.5894    -9.1081 O             1 RES     
     109 O           -5.1433    22.2264    -9.1081 O             1 RES     
     110 O          -13.7663    11.5844    -9.1251 O             1 RES     
     111 O           -3.1943    15.9074    -9.1240 O             1 RES     
     112 O           -6.2653    24.9074    -9.1251 O             1 RES     
     113 O           -3.9003    13.3324    -9.1450 O             1 RES     
     114 O          -14.4723    14.1604    -9.1431 O             1 RES     
     115 O          -16.1313    26.6564    -9.1451 O             1 RES     
     116 O          -13.6273    19.4534    -9.0131 O             1 RES     
     117 O           -3.0553     8.0384    -9.0140 O             1 RES     
     118 O           -6.4043     6.1304    -9.0131 O             1 RES     
     119 O          -11.1013    12.5304    -9.1351 O             1 RES     
     120 O           -0.5303    14.9624    -9.1370 O             1 RES     
     121 O           -8.9303    25.8534    -9.1361 O             1 RES     
     122 O           -9.4973    14.7284    -9.2411 O             1 RES     
     123 O          -20.0693    12.7654    -9.2411 O             1 RES     
     124 O          -10.5343     1.4044    -9.2421 O             1 RES     
     125 O          -11.6063    17.8324    -9.1471 O             1 RES     
     126 O           -1.0343     9.6594    -9.1490 O             1 RES     
     127 O           -8.4243     4.5094    -9.1471 O             1 RES     
     128 O           -5.4793     8.8324    -8.9981 O             1 RES     
     129 O          -16.0523    18.6604    -8.9981 O             1 RES     
     130 O          -14.5523    22.1554    -8.9991 O             1 RES     
     131 O           -8.6093    11.0394    -9.1691 O             1 RES     
     132 O          -19.1813    16.4534    -9.1711 O             1 RES     
     133 O          -11.4223    24.3624    -9.1701 O             1 RES     
     134 O           -9.0503    17.0904    -9.1281 O             1 RES     
     135 O          -19.6213    10.4034    -9.1271 O             1 RES     
     136 O          -10.9813     3.7664    -9.1281 O             1 RES     
     137 O           -9.6373    19.7174    -9.0081 O             1 RES     
     138 O          -20.2083     7.7754    -9.0101 O             1 RES     
     139 O          -10.3943     6.3944    -9.0081 O             1 RES     
     140 O           -7.5113    13.4654    -9.0511 O             1 RES     
     141 O          -18.0833    14.0274    -9.0531 O             1 RES     
     142 O          -12.5203     0.1424    -9.0521 O             1 RES     
     143 O           -6.6733    17.3314    -9.1351 O             1 RES     
     144 O          -17.2453    10.1624    -9.1311 O             1 RES     
     145 O          -13.3583     4.0074    -9.1351 O             1 RES     
     146 O           -6.6513    19.9694    -8.9461 O             1 RES     
     147 O          -17.2223     7.5234    -8.9461 O             1 RES     
     148 O          -13.3803     6.6464    -8.9461 O             1 RES     
     149 O           -8.1233     8.2304    -8.9661 O             1 RES     
     150 O          -18.6963    19.2624    -8.9671 O             1 RES     
     151 O          -11.9083    21.5534    -8.9661 O             1 RES     
     152 O           -5.8363    11.3014    -9.0621 O             1 RES     
     153 O          -16.4083    16.1914    -9.0611 O             1 RES     
     154 O          -14.1953    24.6254    -9.0621 O             1 RES     
     155 O           -5.7793    15.1324    -9.2421 O             1 RES     
     156 O          -16.3513    12.3614    -9.2411 O             1 RES     
     157 O          -14.2533     1.8084    -9.2421 O             1 RES     
     158 O           -1.5043    12.4614    -9.1000 O             1 RES     
     159 O          -12.0763    15.0304    -9.0971 O             1 RES     
     160 O          -18.3153    25.8834    -9.0911 O             1 RES     
     161 Mo          -4.7303    20.4074   -12.5393 Mo            1 RES     
     162 Te          -7.1873    26.5794   -12.6033 Te            1 RES     
     163 Mo          -8.4623     6.3964   -12.5693 Mo            1 RES     
     164 Mo          -9.2363     2.8904   -13.6863 Mo            1 RES     
     165 Mo         -10.7073    26.0354   -13.6493 Mo            1 RES     
     166 Mo         -12.8163    23.1804   -12.5633 Mo            1 RES     
     167 V          -14.3773    26.4714   -13.6863 V             1 RES     
     168 V           -4.7383    23.9654   -13.6323 V             1 RES     
     169 V          -12.0023     5.5344   -13.4963 V             1 RES     
     170 Mo         -15.3013     7.0844   -12.5393 Mo            1 RES     
     171 Mo          -2.2723    14.2344   -12.6053 Mo            1 RES     
     172 Mo         -12.8443    13.2564   -12.6033 Mo            1 RES     
     173 Mo         -17.7593     0.9114   -12.6053 Mo            1 RES     
     174 Nb          -0.9953     7.7714   -12.5713 Nb            1 RES     
     175 Mo         -11.5683    19.7204   -12.5693 Mo            1 RES     
     176 V          -19.0363    21.0954   -12.5713 V             1 RES     
     177 Mo          -0.2223    11.2784   -13.6873 Mo            1 RES     
     178 Mo         -10.7953    16.2144   -13.6863 Mo            1 RES     
     179 Mo         -19.8093    24.6014   -13.6883 Mo            1 RES     
     180 V          -19.8963    14.7814   -13.6493 V             1 RES     
     181 Nb          -9.3243    12.7114   -13.6483 Nb            1 RES     
     182 Nb          -0.1353     1.4574   -13.6503 Nb            1 RES     
     183 Te         -17.7883    17.6354   -12.5633 Te            1 RES     
     184 Te          -7.2153     9.8574   -12.5633 Te            1 RES     
     185 Mo          -2.2443     4.3124   -12.5643 Mo            1 RES     
     186 V          -16.2263    14.3454   -13.6863 V             1 RES     
     187 Te          -5.6553    13.1474   -13.6863 Te            1 RES     
     188 Mo          -3.8053     1.0214   -13.6863 Mo            1 RES     
     189 Te          -4.7203    16.8504   -13.6323 Te            1 RES     
     190 Te         -15.2933    10.6414   -13.6313 Te            1 RES     
     191 Mo         -15.3113     3.5274   -13.6323 Mo            1 RES     
     192 Mo         -18.5993     8.6354   -13.4953 Mo            1 RES     
     193 Mo          -8.0283    18.8584   -13.4963 Mo            1 RES     
     194 Mo          -1.4323    21.9584   -13.4963 Mo            1 RES     
     195 Mo         -12.3343     2.2464   -12.6503 Mo            1 RES     
     196 Mo         -18.2693    11.9244   -12.6493 Mo            1 RES     
     197 Mo          -7.6973    15.5694   -12.6503 Mo            1 RES     
     198 V           -1.7623    25.2474   -12.6503 V             1 RES     
     199 Mo         -16.2743    23.4754   -13.1503 Mo            1 RES     
     200 V          -14.3293    17.3404   -13.1493 V             1 RES     
     201 Mo          -3.7563    10.1514   -13.1493 Mo            1 RES     
     202 Mo          -5.7023     4.0164   -13.1493 Mo            1 RES     
     203 Te          -4.7303     7.0844   -13.6153 Te            1 RES     
     204 Mo         -15.3023    20.4074   -13.6143 Mo            1 RES     
     205 O           -4.7303    20.4074   -10.8673 O             1 RES     
     206 O           -4.7303     7.0844   -15.2833 O             1 RES     
     207 O           -7.1763    26.5544   -10.9303 O             1 RES     
     208 O           -8.4693     6.3354   -10.8983 O             1 RES     
     209 O           -9.2343     2.8814   -15.3653 O             1 RES     
     210 O          -10.7333    26.0444   -15.3273 O             1 RES     
     211 O          -12.7733    23.2604   -10.8933 O             1 RES     
     212 O          -14.3343    26.4434   -15.3633 O             1 RES     
     213 O          -12.3383     2.2454   -10.9393 O             1 RES     
     214 O           -4.7503    23.9384   -15.3103 O             1 RES     
     215 O          -12.0183     5.6134   -15.1723 O             1 RES     
     216 O          -16.4153    23.6724   -14.9703 O             1 RES     
     217 O          -15.7153     5.2664   -13.1113 O             1 RES     
     218 O          -16.8373     2.5844   -13.1273 O             1 RES     
     219 O           -5.5603     0.8364   -13.1463 O             1 RES     
     220 O          -16.9763    21.3614   -13.0173 O             1 RES     
     221 O          -19.5023     1.6394   -13.1403 O             1 RES     
     222 O          -21.1063    26.0884   -13.2453 O             1 RES     
     223 O          -18.9973    22.9834   -13.1523 O             1 RES     
     224 O           -3.9793     5.3364   -13.0023 O             1 RES     
     225 O           -0.8503     3.1304   -13.1743 O             1 RES     
     226 O           -0.4103    23.7264   -13.1303 O             1 RES     
     227 O          -20.9673    21.0984   -13.0133 O             1 RES     
     228 O           -1.9483     0.7044   -13.0563 O             1 RES     
     229 O           -2.7863    23.4854   -13.1353 O             1 RES     
     230 O           -2.8093    20.8464   -12.9493 O             1 RES     
     231 O           -1.3353     5.9384   -12.9703 O             1 RES     
     232 O           -3.6233     2.8674   -13.0653 O             1 RES     
     233 O           -3.6813    25.6844   -13.2453 O             1 RES     
     234 O           -7.9553     1.7074   -13.1003 O             1 RES     
     235 O          -15.3013     7.0844   -10.8673 O             1 RES     
     236 O          -15.3023    20.4074   -15.2833 O             1 RES     
     237 O           -2.2843    14.2584   -10.9313 O             1 RES     
     238 O          -12.8563    13.2324   -10.9293 O             1 RES     
     239 O          -17.7483     0.9344   -10.9313 O             1 RES     
     240 O           -0.9883     7.8324   -10.9003 O             1 RES     
     241 O          -11.5623    19.6594   -10.8983 O             1 RES     
     242 O          -19.0433    21.1564   -10.9003 O             1 RES     
     243 O           -0.2223    11.2874   -15.3663 O             1 RES     
     244 O          -10.7963    16.2044   -15.3653 O             1 RES     
     245 O          -19.8093    24.6104   -15.3673 O             1 RES     
     246 O          -19.8703    14.7704   -15.3273 O             1 RES     
     247 O           -9.2983    12.7214   -15.3263 O             1 RES     
     248 O           -0.1613     1.4474   -15.3272 O             1 RES     
     249 O          -17.8323    17.5574   -10.8933 O             1 RES     
     250 O           -7.2583     9.9364   -10.8933 O             1 RES     
     251 O           -2.1993     4.2334   -10.8933 O             1 RES     
     252 O          -16.2673    14.3734   -15.3623 O             1 RES     
     253 O           -5.6983    13.1194   -15.3623 O             1 RES     
     254 O           -3.7653     1.0504   -15.3623 O             1 RES     
     255 O          -18.2653    11.9264   -10.9383 O             1 RES     
     256 O           -7.6923    15.5684   -10.9393 O             1 RES     
     257 O           -1.7663    25.2504   -10.9383 O             1 RES     
     258 O           -4.7073    16.8774   -15.3103 O             1 RES     
     259 O          -15.2813    10.6154   -15.3093 O             1 RES     
     260 O          -15.3243     3.5544   -15.3103 O             1 RES     
     261 O          -18.5823     8.5594   -15.1713 O             1 RES     
     262 O           -8.0133    18.9364   -15.1723 O             1 RES     
     263 O           -1.4483    21.8814   -15.1723 O             1 RES     
     264 O          -14.1883    17.1424   -14.9683 O             1 RES     
     265 O           -3.6163    10.3484   -14.9693 O             1 RES     
     266 O           -5.8433     3.8194   -14.9693 O             1 RES     
     267 O          -14.8883     8.9034   -13.1113 O             1 RES     
     268 O           -4.3163    18.5894   -13.1113 O             1 RES     
     269 O           -5.1433    22.2264   -13.1113 O             1 RES     
     270 O          -13.7663    11.5844   -13.1283 O             1 RES     
     271 O           -3.1943    15.9074   -13.1273 O             1 RES     
     272 O           -6.2653    24.9074   -13.1283 O             1 RES     
     273 O           -3.9003    13.3324   -13.1483 O             1 RES     
     274 O          -14.4723    14.1604   -13.1463 O             1 RES     
     275 O          -16.1313    26.6564   -13.1483 O             1 RES     
     276 O          -13.6273    19.4534   -13.0163 O             1 RES     
     277 O           -3.0553     8.0384   -13.0173 O             1 RES     
     278 O           -6.4043     6.1304   -13.0163 O             1 RES     
     279 O          -11.1013    12.5304   -13.1383 O             1 RES     
     280 O           -0.5303    14.9624   -13.1403 O             1 RES     
     281 O           -8.9303    25.8534   -13.1393 O             1 RES     
     282 O           -9.4973    14.7284   -13.2443 O             1 RES     
     283 O          -20.0693    12.7654   -13.2443 O             1 RES     
     284 O          -10.5343     1.4044   -13.2453 O             1 RES     
     285 O          -11.6063    17.8324   -13.1503 O             1 RES     
     286 O           -1.0343     9.6594   -13.1523 O             1 RES     
     287 O           -8.4243     4.5094   -13.1503 O             1 RES     
     288 O           -5.4793     8.8324   -13.0013 O             1 RES     
     289 O          -16.0523    18.6604   -13.0013 O             1 RES     
     290 O          -14.5523    22.1554   -13.0023 O             1 RES     
     291 O           -8.6093    11.0394   -13.1723 O             1 RES     
     292 O          -19.1813    16.4534   -13.1743 O             1 RES     
     293 O          -11.4223    24.3624   -13.1733 O             1 RES     
     294 O           -9.0503    17.0904   -13.1313 O             1 RES     
     295 O          -19.6213    10.4034   -13.1303 O             1 RES     
     296 O          -10.9813     3.7664   -13.1313 O             1 RES     
     297 O           -9.6373    19.7174   -13.0113 O             1 RES     
     298 O          -20.2083     7.7754   -13.0133 O             1 RES     
     299 O          -10.3943     6.3944   -13.0113 O             1 RES     
     300 O           -7.5113    13.4654   -13.0543 O             1 RES     
     301 O          -18.0833    14.0274   -13.0563 O             1 RES     
     302 O          -12.5203     0.1424   -13.0553 O             1 RES     
     303 O           -6.6733    17.3314   -13.1383 O             1 RES     
     304 O          -17.2453    10.1624   -13.1343 O             1 RES     
     305 O          -13.3583     4.0074   -13.1383 O             1 RES     
     306 O           -6.6513    19.9694   -12.9493 O             1 RES     
     307 O          -17.2223     7.5234   -12.9493 O             1 RES     
     308 O          -13.3803     6.6464   -12.9493 O             1 RES     
     309 O           -8.1233     8.2304   -12.9693 O             1 RES     
     310 O          -18.6963    19.2624   -12.9703 O             1 RES     
     311 O          -11.9083    21.5534   -12.9693 O             1 RES     
     312 O           -5.8363    11.3014   -13.0653 O             1 RES     
     313 O          -16.4083    16.1914   -13.0643 O             1 RES     
     314 O          -14.1953    24.6254   -13.0653 O             1 RES     
     315 O           -5.7793    15.1324   -13.2453 O             1 RES     
     316 O          -16.3513    12.3614   -13.2443 O             1 RES     
     317 O          -14.2533     1.8084   -13.2453 O             1 RES     
     318 O           -1.5043    12.4614   -13.1033 O             1 RES     
     319 O          -12.0763    15.0304   -13.1003 O             1 RES     
     320 O          -18.3153    25.8834   -13.0943 O             1 RES     
     321 C           -4.9688    19.9295   -17.0884 C             1 RES     
     322 C           -4.4665    21.2314   -17.0851 C             1 RES     
     323 C           -3.0881    21.4455   -17.1033 C             1 RES     
     324 C           -2.2131    20.3607   -17.0838 C             1 RES     
     325 C           -2.7153    19.0588   -17.0739 C             1 RES     
     326 C           -4.0938    18.8445   -17.0878 C             1 RES     
     327 H           -6.0428    19.7624   -17.0942 H             1 RES     
     328 H           -5.1479    22.0769   -17.0695 H             1 RES     
     329 H           -2.6967    22.4593   -17.1331 H             1 RES     
     330 H           -1.1392    20.5283   -17.0756 H             1 RES     
     331 H           -2.0336    18.2135   -17.0599 H             1 RES     
     332 H           -4.4853    17.8303   -17.0951 H             1 RES     
     333 C          -13.9460     9.1678   -17.0887 C             1 RES     
     334 C          -13.4437    10.4697   -17.0854 C             1 RES     
     335 C          -12.0653    10.6838   -17.1036 C             1 RES     
     336 C          -11.1903     9.5991   -17.0841 C             1 RES     
     337 C          -11.6925     8.2971   -17.0742 C             1 RES     
     338 C          -13.0711     8.0828   -17.0881 C             1 RES     
     339 H          -15.0200     9.0007   -17.0945 H             1 RES     
     340 H          -14.1251    11.3153   -17.0697 H             1 RES     
     341 H          -11.6740    11.6977   -17.1334 H             1 RES     
     342 H          -10.1164     9.7666   -17.0759 H             1 RES     
     343 H          -11.0108     7.4518   -17.0602 H             1 RES     
     344 H          -13.4625     7.0686   -17.0953 H             1 RES     
     345 C          -11.1424    22.2457   -17.0951 C             1 RES     
     346 C          -10.6402    23.5477   -17.0918 C             1 RES     
     347 C           -9.2617    23.7617   -17.1100 C             1 RES     
     348 C           -8.3868    22.6770   -17.0904 C             1 RES     
     349 C           -8.8890    21.3751   -17.0806 C             1 RES     
     350 C          -10.2675    21.1608   -17.0945 C             1 RES     
     351 H          -12.2165    22.0787   -17.1009 H             1 RES     
     352 H          -11.3216    24.3932   -17.0761 H             1 RES     
     353 H           -8.8704    24.7756   -17.1397 H             1 RES     
     354 H           -7.3129    22.8445   -17.0823 H             1 RES     
     355 H           -8.2073    20.5297   -17.0666 H             1 RES     
     356 H          -10.6590    20.1465   -17.1017 H             1 RES     
     357 C          -15.4760    16.7328   -17.0884 C             1 RES     
     358 C          -14.9738    18.0347   -17.0851 C             1 RES     
     359 C          -13.5953    18.2488   -17.1033 C             1 RES     
     360 C          -12.7204    17.1641   -17.0838 C             1 RES     
     361 C          -13.2225    15.8621   -17.0739 C             1 RES     
     362 C          -14.6011    15.6479   -17.0878 C             1 RES     
     363 H          -16.5500    16.5657   -17.0942 H             1 RES     
     364 H          -15.6552    18.8803   -17.0695 H             1 RES     
     365 H          -13.2040    19.2627   -17.1331 H             1 RES     
     366 H          -11.6464    17.3316   -17.0756 H             1 RES     
     367 H          -12.5408    15.0168   -17.0599 H             1 RES     
     368 H          -14.9925    14.6336   -17.0951 H             1 RES     
     369 C           -4.9733    11.8098   -17.0881 C             1 RES     
     370 C           -4.4711    13.1117   -17.0848 C             1 RES     
     371 C           -3.0926    13.3258   -17.1030 C             1 RES     
     372 C           -2.2177    12.2410   -17.0835 C             1 RES     
     373 C           -2.7198    10.9391   -17.0736 C             1 RES     
     374 C           -4.0984    10.7248   -17.0875 C             1 RES     
     375 H           -6.0473    11.6427   -17.0939 H             1 RES     
     376 H           -5.1525    13.9572   -17.0691 H             1 RES     
     377 H           -2.7013    14.3396   -17.1328 H             1 RES     
     378 H           -1.1437    12.4086   -17.0753 H             1 RES     
     379 H           -2.0381    10.0938   -17.0596 H             1 RES     
     380 H           -4.4898     9.7106   -17.0948 H             1 RES     
     381 C          -19.0700     4.2823   -17.0949 C             1 RES     
     382 C          -18.5677     5.5843   -17.0916 C             1 RES     
     383 C          -17.1893     5.7983   -17.1098 C             1 RES     
     384 C          -16.3143     4.7136   -17.0903 C             1 RES     
     385 C          -16.8165     3.4117   -17.0804 C             1 RES     
     386 C          -18.1951     3.1974   -17.0943 C             1 RES     
     387 H          -20.1440     4.1153   -17.1007 H             1 RES     
     388 H          -19.2491     6.4298   -17.0759 H             1 RES     
     389 H          -16.7980     6.8122   -17.1396 H             1 RES     
     390 H          -15.2404     4.8811   -17.0821 H             1 RES     
     391 H          -16.1348     2.5663   -17.0664 H             1 RES     
     392 H          -18.5865     2.1832   -17.1016 H             1 RES     
     393 C          -18.0588    23.0841   -17.0885 C             1 RES     
     394 C          -17.5566    24.3860   -17.0852 C             1 RES     
     395 C          -16.1781    24.6001   -17.1034 C             1 RES     
     396 C          -15.3032    23.5153   -17.0839 C             1 RES     
     397 C          -15.8053    22.2134   -17.0740 C             1 RES     
     398 C          -17.1839    21.9991   -17.0879 C             1 RES     
     399 H          -19.1328    22.9170   -17.0943 H             1 RES     
     400 H          -18.2380    25.2315   -17.0695 H             1 RES     
     401 H          -15.7868    25.6139   -17.1331 H             1 RES     
     402 H          -14.2292    23.6829   -17.0757 H             1 RES     
     403 H          -15.1236    21.3681   -17.0600 H             1 RES     
     404 H          -17.5753    20.9849   -17.0951 H             1 RES     
     405 C           -8.1414     5.0489   -17.0884 C             1 RES     
     406 C           -7.6391     6.3508   -17.0851 C             1 RES     
     407 C           -6.2607     6.5649   -17.1033 C             1 RES     
     408 C           -5.3857     5.4802   -17.0838 C             1 RES     
     409 C           -5.8879     4.1782   -17.0739 C             1 RES     
     410 C           -7.2665     3.9640   -17.0878 C             1 RES     
     411 H           -9.2154     4.8818   -17.0942 H             1 RES     
     412 H           -8.3205     7.1964   -17.0694 H             1 RES     
     413 H           -5.8694     7.5788   -17.1330 H             1 RES     
     414 H           -4.3118     5.6477   -17.0756 H             1 RES     
     415 H           -5.2062     3.3329   -17.0599 H             1 RES     
     416 H           -7.6579     2.9497   -17.0950 H             1 RES     
     417 C          -15.9593    15.7140    -5.1880 C             1 RES     
     418 C          -16.4616    17.0159    -5.1913 C             1 RES     
     419 C          -17.8400    17.2300    -5.1731 C             1 RES     
     420 C          -18.7150    16.1453    -5.1926 C             1 RES     
     421 C          -18.2128    14.8433    -5.2025 C             1 RES     
     422 C          -16.8342    14.6290    -5.1886 C             1 RES     
     423 H          -14.8853    15.5469    -5.1822 H             1 RES     
     424 H          -15.7801    17.8615    -5.2069 H             1 RES     
     425 H          -18.2313    18.2439    -5.1433 H             1 RES     
     426 H          -19.7889    16.3128    -5.2008 H             1 RES     
     427 H          -18.8945    13.9980    -5.2164 H             1 RES     
     428 H          -16.4428    13.6148    -5.1813 H             1 RES     
     429 C           -2.9251    22.9333    -5.1814 C             1 RES     
     430 C           -3.4273    24.2352    -5.1847 C             1 RES     
     431 C           -4.8058    24.4493    -5.1665 C             1 RES     
     432 C           -5.6807    23.3646    -5.1860 C             1 RES     
     433 C           -5.1786    22.0626    -5.1959 C             1 RES     
     434 C           -3.8000    21.8483    -5.1820 C             1 RES     
     435 H           -1.8510    22.7662    -5.1756 H             1 RES     
     436 H           -2.7459    25.0807    -5.2003 H             1 RES     
     437 H           -5.1971    25.4632    -5.1367 H             1 RES     
     438 H           -6.7547    23.5321    -5.1942 H             1 RES     
     439 H           -5.8602    21.2173    -5.2099 H             1 RES     
     440 H           -3.4085    20.8341    -5.1747 H             1 RES     
     441 C           -8.6981    20.3670    -5.1879 C             1 RES     
     442 C           -9.2004    21.6689    -5.1912 C             1 RES     
     443 C          -10.5788    21.8830    -5.1730 C             1 RES     
     444 C          -11.4538    20.7983    -5.1926 C             1 RES     
     445 C          -10.9516    19.4963    -5.2024 C             1 RES     
     446 C           -9.5730    19.2820    -5.1885 C             1 RES     
     447 H           -7.6241    20.1999    -5.1821 H             1 RES     
     448 H           -8.5189    22.5145    -5.2069 H             1 RES     
     449 H          -10.9701    22.8969    -5.1433 H             1 RES     
     450 H          -12.5277    20.9658    -5.2007 H             1 RES     
     451 H          -11.6333    18.6510    -5.2164 H             1 RES     
     452 H           -9.1816    18.2678    -5.1813 H             1 RES     
     453 C           -2.9285    16.5214    -5.1814 C             1 RES     
     454 C           -3.4307    17.8233    -5.1847 C             1 RES     
     455 C           -4.8092    18.0374    -5.1665 C             1 RES     
     456 C           -5.6841    16.9526    -5.1860 C             1 RES     
     457 C           -5.1819    15.6507    -5.1959 C             1 RES     
     458 C           -3.8034    15.4364    -5.1820 C             1 RES     
     459 H           -1.8544    16.3543    -5.1756 H             1 RES     
     460 H           -2.7493    18.6688    -5.2003 H             1 RES     
     461 H           -5.2005    19.0512    -5.1367 H             1 RES     
     462 H           -6.7580    17.1202    -5.1942 H             1 RES     
     463 H           -5.8636    14.8054    -5.2099 H             1 RES     
     464 H           -3.4119    14.4222    -5.1747 H             1 RES     
     465 C          -16.0395     8.9232    -5.1813 C             1 RES     
     466 C          -16.5417    10.2252    -5.1846 C             1 RES     
     467 C          -17.9202    10.4392    -5.1664 C             1 RES     
     468 C          -18.7951     9.3545    -5.1860 C             1 RES     
     469 C          -18.2930     8.0526    -5.1958 C             1 RES     
     470 C          -16.9144     7.8383    -5.1819 C             1 RES     
     471 H          -14.9655     8.7561    -5.1755 H             1 RES     
     472 H          -15.8603    11.0707    -5.2003 H             1 RES     
     473 H          -18.3115    11.4531    -5.1367 H             1 RES     
     474 H          -19.8691     9.5220    -5.1941 H             1 RES     
     475 H          -18.9746     7.2072    -5.2098 H             1 RES     
     476 H          -16.5229     6.8240    -5.1747 H             1 RES     
     477 C           -9.4308    10.0297    -5.1813 C             1 RES     
     478 C           -9.9331    11.3316    -5.1846 C             1 RES     
     479 C          -11.3115    11.5457    -5.1664 C             1 RES     
     480 C          -12.1865    10.4609    -5.1859 C             1 RES     
     481 C          -11.6843     9.1590    -5.1958 C             1 RES     
     482 C          -10.3057     8.9447    -5.1819 C             1 RES     
     483 H           -8.3568     9.8626    -5.1755 H             1 RES     
     484 H           -9.2516    12.1771    -5.2002 H             1 RES     
     485 H          -11.7028    12.5595    -5.1366 H             1 RES     
     486 H          -13.2604    10.6285    -5.1941 H             1 RES     
     487 H          -12.3660     8.3137    -5.2098 H             1 RES     
     488 H           -9.9143     7.9305    -5.1746 H             1 RES     
     489 C          -16.1371     3.6227    -5.1880 C             1 RES     
     490 C          -16.6394     4.9247    -5.1913 C             1 RES     
     491 C          -18.0179     5.1387    -5.1731 C             1 RES     
     492 C          -18.8928     4.0540    -5.1926 C             1 RES     
     493 C          -18.3906     2.7521    -5.2025 C             1 RES     
     494 C          -17.0121     2.5378    -5.1886 C             1 RES     
     495 H          -15.0631     3.4557    -5.1822 H             1 RES     
     496 H          -15.9580     5.7702    -5.2070 H             1 RES     
     497 H          -18.4092     6.1526    -5.1433 H             1 RES     
     498 H          -19.9667     4.2215    -5.2008 H             1 RES     
     499 H          -19.0723     1.9067    -5.2165 H             1 RES     
     500 H          -16.6206     1.5236    -5.1814 H             1 RES     
     501 C           -8.7630     3.3866    -5.1810 C             1 RES     
     502 C           -9.2652     4.6886    -5.1843 C             1 RES     
     503 C          -10.6437     4.9026    -5.1661 C             1 RES     
     504 C          -11.5186     3.8179    -5.1857 C             1 RES     
     505 C          -11.0165     2.5160    -5.1955 C             1 RES     
     506 C           -9.6379     2.3017    -5.1816 C             1 RES     
     507 H           -7.6890     3.2196    -5.1752 H             1 RES     
     508 H           -8.5838     5.5341    -5.2000 H             1 RES     
     509 H          -11.0350     5.9165    -5.1364 H             1 RES     
     510 H          -12.5926     3.9854    -5.1938 H             1 RES     
     511 H          -11.6982     1.6706    -5.2095 H             1 RES     
     512 H           -9.2465     1.2874    -5.1744 H             1 RES     
@<TRIPOS>BOND
@<TRIPOS>SUBSTRUCTURE
       1 RES             1 RESIDUE    0 **** ROOT      0
