@<TRIPOS>MOLECULE
RES
1920 0 1 0 1
SMALL
NO_CHARGES
@<TRIPOS>CRYSIN
   47.4650    58.1613    22.3145    90.0000    90.0000    90.0000  1  1
@<TRIPOS>ATOM
       1 V            4.5882    20.1321     8.3604 V             1 RES     
       2 Mo           7.0452    26.3041     8.4244 Mo            1 RES     
       3 Mo           8.3202     6.1211     8.3904 Mo            1 RES     
       4 Mo           9.0942     2.6151     9.5074 Mo            1 RES     
       5 V           10.5652    25.7601     9.4704 V             1 RES     
       6 Mo          12.6742    22.9051     8.3844 Mo            1 RES     
       7 Mo          14.2352    26.1961     9.5074 Mo            1 RES     
       8 Mo           4.5962    23.6901     9.4534 Mo            1 RES     
       9 Nb          11.8602     5.2591     9.3174 Nb            1 RES     
      10 Mo          15.1592     6.8091     8.3604 Mo            1 RES     
      11 Mo           2.1302    13.9591     8.4264 Mo            1 RES     
      12 Mo          12.7022    12.9811     8.4244 Mo            1 RES     
      13 Mo          17.6172     0.6361     8.4264 Mo            1 RES     
      14 Mo           0.8532     7.4961     8.3924 Mo            1 RES     
      15 Te          11.4262    19.4451     8.3904 Te            1 RES     
      16 Mo          18.8942    20.8201     8.3924 Mo            1 RES     
      17 Mo           0.0802    11.0031     9.5084 Mo            1 RES     
      18 Nb          10.6532    15.9391     9.5074 Nb            1 RES     
      19 Mo          19.6672    24.3261     9.5094 Mo            1 RES     
      20 Mo          19.7542    14.5061     9.4704 Mo            1 RES     
      21 V            9.1822    12.4361     9.4694 V             1 RES     
      22 Te          -0.0068     1.1821     9.4714 Te            1 RES     
      23 Te          17.6462    17.3601     8.3844 Te            1 RES     
      24 Te           7.0732     9.5821     8.3844 Te            1 RES     
      25 Mo           2.1022     4.0371     8.3854 Mo            1 RES     
      26 Mo          16.0842    14.0701     9.5074 Mo            1 RES     
      27 Mo           5.5132    12.8721     9.5074 Mo            1 RES     
      28 Nb           3.6632     0.7461     9.5074 Nb            1 RES     
      29 Mo           4.5782    16.5751     9.4534 Mo            1 RES     
      30 Mo          15.1512    10.3661     9.4524 Mo            1 RES     
      31 Nb          15.1692     3.2521     9.4534 Nb            1 RES     
      32 Mo          18.4572     8.3601     9.3164 Mo            1 RES     
      33 Mo           7.8862    18.5831     9.3174 Mo            1 RES     
      34 Mo           1.2902    21.6831     9.3174 Mo            1 RES     
      35 Mo          12.1922     1.9711     8.4714 Mo            1 RES     
      36 V           18.1272    11.6491     8.4704 V             1 RES     
      37 Te           7.5552    15.2941     8.4714 Te            1 RES     
      38 Te           1.6202    24.9721     8.4714 Te            1 RES     
      39 Nb          16.1322    23.2001     8.9714 Nb            1 RES     
      40 Mo          14.1872    17.0651     8.9704 Mo            1 RES     
      41 Mo           3.6142     9.8761     8.9704 Mo            1 RES     
      42 Nb           5.5602     3.7411     8.9704 Nb            1 RES     
      43 V            4.5882     6.8091     9.4364 V             1 RES     
      44 Mo          15.1602    20.1321     9.4354 Mo            1 RES     
      45 O            4.5882    20.1321     6.6884 O             1 RES     
      46 O            4.5882     6.8091    11.1044 O             1 RES     
      47 O            7.0342    26.2791     6.7514 O             1 RES     
      48 O            8.3272     6.0601     6.7194 O             1 RES     
      49 O            9.0922     2.6061    11.1864 O             1 RES     
      50 O           10.5912    25.7691    11.1484 O             1 RES     
      51 O           12.6312    22.9851     6.7144 O             1 RES     
      52 O           14.1922    26.1681    11.1844 O             1 RES     
      53 O           12.1962     1.9701     6.7604 O             1 RES     
      54 O            4.6082    23.6631    11.1314 O             1 RES     
      55 O           11.8762     5.3381    10.9934 O             1 RES     
      56 O           16.2732    23.3971    10.7914 O             1 RES     
      57 O           15.5732     4.9911     8.9324 O             1 RES     
      58 O           16.6952     2.3091     8.9484 O             1 RES     
      59 O            5.4182     0.5611     8.9674 O             1 RES     
      60 O           16.8342    21.0861     8.8384 O             1 RES     
      61 O           19.3602     1.3641     8.9614 O             1 RES     
      62 O           20.9642    25.8131     9.0664 O             1 RES     
      63 O           18.8552    22.7081     8.9734 O             1 RES     
      64 O            3.8372     5.0611     8.8234 O             1 RES     
      65 O            0.7082     2.8551     8.9954 O             1 RES     
      66 O            0.2682    23.4511     8.9514 O             1 RES     
      67 O           20.8252    20.8231     8.8344 O             1 RES     
      68 O            1.8062     0.4291     8.8774 O             1 RES     
      69 O            2.6442    23.2101     8.9564 O             1 RES     
      70 O            2.6672    20.5711     8.7704 O             1 RES     
      71 O            1.1932     5.6631     8.7914 O             1 RES     
      72 O            3.4812     2.5921     8.8864 O             1 RES     
      73 O            3.5392    25.4091     9.0664 O             1 RES     
      74 O            7.8132     1.4321     8.9214 O             1 RES     
      75 O           15.1592     6.8091     6.6884 O             1 RES     
      76 O           15.1602    20.1321    11.1044 O             1 RES     
      77 O            2.1422    13.9831     6.7524 O             1 RES     
      78 O           12.7142    12.9571     6.7504 O             1 RES     
      79 O           17.6062     0.6591     6.7524 O             1 RES     
      80 O            0.8462     7.5571     6.7214 O             1 RES     
      81 O           11.4202    19.3841     6.7194 O             1 RES     
      82 O           18.9012    20.8811     6.7214 O             1 RES     
      83 O            0.0802    11.0121    11.1874 O             1 RES     
      84 O           10.6542    15.9291    11.1864 O             1 RES     
      85 O           19.6672    24.3351    11.1884 O             1 RES     
      86 O           19.7282    14.4951    11.1484 O             1 RES     
      87 O            9.1562    12.4461    11.1474 O             1 RES     
      88 O            0.0192     1.1721    11.1484 O             1 RES     
      89 O           17.6902    17.2821     6.7144 O             1 RES     
      90 O            7.1162     9.6611     6.7144 O             1 RES     
      91 O            2.0572     3.9581     6.7144 O             1 RES     
      92 O           16.1252    14.0981    11.1834 O             1 RES     
      93 O            5.5562    12.8441    11.1834 O             1 RES     
      94 O            3.6232     0.7751    11.1834 O             1 RES     
      95 O           18.1232    11.6511     6.7594 O             1 RES     
      96 O            7.5502    15.2931     6.7604 O             1 RES     
      97 O            1.6242    24.9751     6.7594 O             1 RES     
      98 O            4.5652    16.6021    11.1314 O             1 RES     
      99 O           15.1392    10.3401    11.1304 O             1 RES     
     100 O           15.1822     3.2791    11.1314 O             1 RES     
     101 O           18.4402     8.2841    10.9924 O             1 RES     
     102 O            7.8712    18.6611    10.9934 O             1 RES     
     103 O            1.3062    21.6061    10.9934 O             1 RES     
     104 O           14.0462    16.8671    10.7894 O             1 RES     
     105 O            3.4742    10.0731    10.7904 O             1 RES     
     106 O            5.7012     3.5441    10.7904 O             1 RES     
     107 O           14.7462     8.6281     8.9324 O             1 RES     
     108 O            4.1742    18.3141     8.9324 O             1 RES     
     109 O            5.0012    21.9511     8.9324 O             1 RES     
     110 O           13.6242    11.3091     8.9494 O             1 RES     
     111 O            3.0522    15.6321     8.9484 O             1 RES     
     112 O            6.1232    24.6321     8.9494 O             1 RES     
     113 O            3.7582    13.0571     8.9694 O             1 RES     
     114 O           14.3302    13.8851     8.9674 O             1 RES     
     115 O           15.9892    26.3811     8.9694 O             1 RES     
     116 O           13.4852    19.1781     8.8374 O             1 RES     
     117 O            2.9132     7.7631     8.8384 O             1 RES     
     118 O            6.2622     5.8551     8.8374 O             1 RES     
     119 O           10.9592    12.2551     8.9594 O             1 RES     
     120 O            0.3882    14.6871     8.9614 O             1 RES     
     121 O            8.7882    25.5781     8.9604 O             1 RES     
     122 O            9.3552    14.4531     9.0654 O             1 RES     
     123 O           19.9272    12.4901     9.0654 O             1 RES     
     124 O           10.3922     1.1291     9.0664 O             1 RES     
     125 O           11.4642    17.5571     8.9714 O             1 RES     
     126 O            0.8922     9.3841     8.9734 O             1 RES     
     127 O            8.2822     4.2341     8.9714 O             1 RES     
     128 O            5.3372     8.5571     8.8224 O             1 RES     
     129 O           15.9102    18.3851     8.8224 O             1 RES     
     130 O           14.4102    21.8801     8.8234 O             1 RES     
     131 O            8.4672    10.7641     8.9934 O             1 RES     
     132 O           19.0392    16.1781     8.9954 O             1 RES     
     133 O           11.2802    24.0871     8.9944 O             1 RES     
     134 O            8.9082    16.8151     8.9524 O             1 RES     
     135 O           19.4792    10.1281     8.9514 O             1 RES     
     136 O           10.8392     3.4911     8.9524 O             1 RES     
     137 O            9.4952    19.4421     8.8324 O             1 RES     
     138 O           20.0662     7.5001     8.8344 O             1 RES     
     139 O           10.2522     6.1191     8.8324 O             1 RES     
     140 O            7.3692    13.1901     8.8754 O             1 RES     
     141 O           17.9412    13.7521     8.8774 O             1 RES     
     142 O           12.3782    -0.1329     8.8764 O             1 RES     
     143 O            6.5312    17.0561     8.9594 O             1 RES     
     144 O           17.1032     9.8871     8.9554 O             1 RES     
     145 O           13.2162     3.7321     8.9594 O             1 RES     
     146 O            6.5092    19.6941     8.7704 O             1 RES     
     147 O           17.0802     7.2481     8.7704 O             1 RES     
     148 O           13.2382     6.3711     8.7704 O             1 RES     
     149 O            7.9812     7.9551     8.7904 O             1 RES     
     150 O           18.5542    18.9871     8.7914 O             1 RES     
     151 O           11.7662    21.2781     8.7904 O             1 RES     
     152 O            5.6942    11.0261     8.8864 O             1 RES     
     153 O           16.2662    15.9161     8.8854 O             1 RES     
     154 O           14.0532    24.3501     8.8864 O             1 RES     
     155 O            5.6372    14.8571     9.0664 O             1 RES     
     156 O           16.2092    12.0861     9.0654 O             1 RES     
     157 O           14.1112     1.5331     9.0664 O             1 RES     
     158 O            1.3622    12.1861     8.9244 O             1 RES     
     159 O           11.9342    14.7551     8.9214 O             1 RES     
     160 O           18.1732    25.6081     8.9154 O             1 RES     
     161 Mo          26.0731    20.1321     8.3604 Mo            1 RES     
     162 Mo          28.5301    26.3041     8.4244 Mo            1 RES     
     163 Mo          29.8051     6.1211     8.3904 Mo            1 RES     
     164 Nb          30.5791     2.6151     9.5074 Nb            1 RES     
     165 Mo          32.0501    25.7601     9.4704 Mo            1 RES     
     166 Mo          34.1591    22.9051     8.3844 Mo            1 RES     
     167 Nb          35.7201    26.1961     9.5074 Nb            1 RES     
     168 Mo          26.0811    23.6901     9.4534 Mo            1 RES     
     169 Mo          33.3451     5.2591     9.3174 Mo            1 RES     
     170 Mo          36.6441     6.8091     8.3604 Mo            1 RES     
     171 Mo          23.6151    13.9591     8.4264 Mo            1 RES     
     172 Mo          34.1871    12.9811     8.4244 Mo            1 RES     
     173 V           39.1021     0.6361     8.4264 V             1 RES     
     174 Nb          22.3381     7.4961     8.3924 Nb            1 RES     
     175 V           32.9111    19.4451     8.3904 V             1 RES     
     176 Mo          40.3791    20.8201     8.3924 Mo            1 RES     
     177 Mo          21.5651    11.0031     9.5084 Mo            1 RES     
     178 Mo          32.1381    15.9391     9.5074 Mo            1 RES     
     179 Te          41.1521    24.3261     9.5094 Te            1 RES     
     180 Nb          41.2391    14.5061     9.4704 Nb            1 RES     
     181 Mo          30.6671    12.4361     9.4694 Mo            1 RES     
     182 V           21.4781     1.1821     9.4714 V             1 RES     
     183 Mo          39.1311    17.3601     8.3844 Mo            1 RES     
     184 Mo          28.5581     9.5821     8.3844 Mo            1 RES     
     185 Nb          23.5871     4.0371     8.3854 Nb            1 RES     
     186 Mo          37.5691    14.0701     9.5074 Mo            1 RES     
     187 Mo          26.9981    12.8721     9.5074 Mo            1 RES     
     188 Mo          25.1481     0.7461     9.5074 Mo            1 RES     
     189 Mo          26.0631    16.5751     9.4534 Mo            1 RES     
     190 Mo          36.6361    10.3661     9.4524 Mo            1 RES     
     191 Mo          36.6541     3.2521     9.4534 Mo            1 RES     
     192 Mo          39.9421     8.3601     9.3164 Mo            1 RES     
     193 Mo          29.3711    18.5831     9.3174 Mo            1 RES     
     194 Te          22.7751    21.6831     9.3174 Te            1 RES     
     195 V           33.6771     1.9711     8.4714 V             1 RES     
     196 Mo          39.6121    11.6491     8.4704 Mo            1 RES     
     197 Mo          29.0401    15.2941     8.4714 Mo            1 RES     
     198 Mo          23.1051    24.9721     8.4714 Mo            1 RES     
     199 Mo          37.6171    23.2001     8.9714 Mo            1 RES     
     200 Mo          35.6721    17.0651     8.9704 Mo            1 RES     
     201 Te          25.0991     9.8761     8.9704 Te            1 RES     
     202 Mo          27.0451     3.7411     8.9704 Mo            1 RES     
     203 Mo          26.0731     6.8091     9.4364 Mo            1 RES     
     204 Mo          36.6451    20.1321     9.4354 Mo            1 RES     
     205 O           26.0731    20.1321     6.6884 O             1 RES     
     206 O           26.0731     6.8091    11.1044 O             1 RES     
     207 O           28.5191    26.2791     6.7514 O             1 RES     
     208 O           29.8121     6.0601     6.7194 O             1 RES     
     209 O           30.5771     2.6061    11.1864 O             1 RES     
     210 O           32.0761    25.7691    11.1484 O             1 RES     
     211 O           34.1161    22.9851     6.7144 O             1 RES     
     212 O           35.6771    26.1681    11.1844 O             1 RES     
     213 O           33.6811     1.9701     6.7604 O             1 RES     
     214 O           26.0931    23.6631    11.1314 O             1 RES     
     215 O           33.3611     5.3381    10.9934 O             1 RES     
     216 O           37.7581    23.3971    10.7914 O             1 RES     
     217 O           37.0581     4.9911     8.9324 O             1 RES     
     218 O           38.1801     2.3091     8.9484 O             1 RES     
     219 O           26.9031     0.5611     8.9674 O             1 RES     
     220 O           38.3191    21.0861     8.8384 O             1 RES     
     221 O           40.8451     1.3641     8.9614 O             1 RES     
     222 O           42.4491    25.8131     9.0664 O             1 RES     
     223 O           40.3401    22.7081     8.9734 O             1 RES     
     224 O           25.3221     5.0611     8.8234 O             1 RES     
     225 O           22.1931     2.8551     8.9954 O             1 RES     
     226 O           21.7531    23.4511     8.9514 O             1 RES     
     227 O           42.3101    20.8231     8.8344 O             1 RES     
     228 O           23.2911     0.4291     8.8774 O             1 RES     
     229 O           24.1291    23.2101     8.9564 O             1 RES     
     230 O           24.1521    20.5711     8.7704 O             1 RES     
     231 O           22.6781     5.6631     8.7914 O             1 RES     
     232 O           24.9661     2.5921     8.8864 O             1 RES     
     233 O           25.0241    25.4091     9.0664 O             1 RES     
     234 O           29.2981     1.4321     8.9214 O             1 RES     
     235 O           36.6441     6.8091     6.6884 O             1 RES     
     236 O           36.6451    20.1321    11.1044 O             1 RES     
     237 O           23.6271    13.9831     6.7524 O             1 RES     
     238 O           34.1991    12.9571     6.7504 O             1 RES     
     239 O           39.0911     0.6591     6.7524 O             1 RES     
     240 O           22.3311     7.5571     6.7214 O             1 RES     
     241 O           32.9051    19.3841     6.7194 O             1 RES     
     242 O           40.3861    20.8811     6.7214 O             1 RES     
     243 O           21.5651    11.0121    11.1874 O             1 RES     
     244 O           32.1391    15.9291    11.1864 O             1 RES     
     245 O           41.1521    24.3351    11.1884 O             1 RES     
     246 O           41.2131    14.4951    11.1484 O             1 RES     
     247 O           30.6411    12.4461    11.1474 O             1 RES     
     248 O           21.5041     1.1721    11.1484 O             1 RES     
     249 O           39.1751    17.2821     6.7144 O             1 RES     
     250 O           28.6011     9.6611     6.7144 O             1 RES     
     251 O           23.5421     3.9581     6.7144 O             1 RES     
     252 O           37.6101    14.0981    11.1834 O             1 RES     
     253 O           27.0411    12.8441    11.1834 O             1 RES     
     254 O           25.1081     0.7751    11.1834 O             1 RES     
     255 O           39.6081    11.6511     6.7594 O             1 RES     
     256 O           29.0351    15.2931     6.7604 O             1 RES     
     257 O           23.1091    24.9751     6.7594 O             1 RES     
     258 O           26.0501    16.6021    11.1314 O             1 RES     
     259 O           36.6241    10.3401    11.1304 O             1 RES     
     260 O           36.6671     3.2791    11.1314 O             1 RES     
     261 O           39.9251     8.2841    10.9924 O             1 RES     
     262 O           29.3561    18.6611    10.9934 O             1 RES     
     263 O           22.7911    21.6061    10.9934 O             1 RES     
     264 O           35.5311    16.8671    10.7894 O             1 RES     
     265 O           24.9591    10.0731    10.7904 O             1 RES     
     266 O           27.1861     3.5441    10.7904 O             1 RES     
     267 O           36.2311     8.6281     8.9324 O             1 RES     
     268 O           25.6591    18.3141     8.9324 O             1 RES     
     269 O           26.4861    21.9511     8.9324 O             1 RES     
     270 O           35.1091    11.3091     8.9494 O             1 RES     
     271 O           24.5371    15.6321     8.9484 O             1 RES     
     272 O           27.6081    24.6321     8.9494 O             1 RES     
     273 O           25.2431    13.0571     8.9694 O             1 RES     
     274 O           35.8151    13.8851     8.9674 O             1 RES     
     275 O           37.4741    26.3811     8.9694 O             1 RES     
     276 O           34.9701    19.1781     8.8374 O             1 RES     
     277 O           24.3981     7.7631     8.8384 O             1 RES     
     278 O           27.7471     5.8551     8.8374 O             1 RES     
     279 O           32.4441    12.2551     8.9594 O             1 RES     
     280 O           21.8731    14.6871     8.9614 O             1 RES     
     281 O           30.2731    25.5781     8.9604 O             1 RES     
     282 O           30.8401    14.4531     9.0654 O             1 RES     
     283 O           41.4121    12.4901     9.0654 O             1 RES     
     284 O           31.8771     1.1291     9.0664 O             1 RES     
     285 O           32.9491    17.5571     8.9714 O             1 RES     
     286 O           22.3771     9.3841     8.9734 O             1 RES     
     287 O           29.7671     4.2341     8.9714 O             1 RES     
     288 O           26.8221     8.5571     8.8224 O             1 RES     
     289 O           37.3951    18.3851     8.8224 O             1 RES     
     290 O           35.8951    21.8801     8.8234 O             1 RES     
     291 O           29.9521    10.7641     8.9934 O             1 RES     
     292 O           40.5241    16.1781     8.9954 O             1 RES     
     293 O           32.7651    24.0871     8.9944 O             1 RES     
     294 O           30.3931    16.8151     8.9524 O             1 RES     
     295 O           40.9641    10.1281     8.9514 O             1 RES     
     296 O           32.3241     3.4911     8.9524 O             1 RES     
     297 O           30.9801    19.4421     8.8324 O             1 RES     
     298 O           41.5511     7.5001     8.8344 O             1 RES     
     299 O           31.7371     6.1191     8.8324 O             1 RES     
     300 O           28.8541    13.1901     8.8754 O             1 RES     
     301 O           39.4261    13.7521     8.8774 O             1 RES     
     302 O           33.8631    -0.1329     8.8764 O             1 RES     
     303 O           28.0161    17.0561     8.9594 O             1 RES     
     304 O           38.5881     9.8871     8.9554 O             1 RES     
     305 O           34.7011     3.7321     8.9594 O             1 RES     
     306 O           27.9941    19.6941     8.7704 O             1 RES     
     307 O           38.5651     7.2481     8.7704 O             1 RES     
     308 O           34.7231     6.3711     8.7704 O             1 RES     
     309 O           29.4661     7.9551     8.7904 O             1 RES     
     310 O           40.0391    18.9871     8.7914 O             1 RES     
     311 O           33.2511    21.2781     8.7904 O             1 RES     
     312 O           27.1791    11.0261     8.8864 O             1 RES     
     313 O           37.7511    15.9161     8.8854 O             1 RES     
     314 O           35.5381    24.3501     8.8864 O             1 RES     
     315 O           27.1221    14.8571     9.0664 O             1 RES     
     316 O           37.6941    12.0861     9.0654 O             1 RES     
     317 O           35.5961     1.5331     9.0664 O             1 RES     
     318 O           22.8471    12.1861     8.9244 O             1 RES     
     319 O           33.4191    14.7551     8.9214 O             1 RES     
     320 O           39.6581    25.6081     8.9154 O             1 RES     
     321 Te           4.5882    46.7794     8.3604 Te            1 RES     
     322 V            7.0452    52.9514     8.4244 V             1 RES     
     323 Te           8.3202    32.7684     8.3904 Te            1 RES     
     324 Mo           9.0942    29.2624     9.5074 Mo            1 RES     
     325 Mo          10.5652    52.4074     9.4704 Mo            1 RES     
     326 Mo          12.6742    49.5524     8.3844 Mo            1 RES     
     327 Mo          14.2352    52.8434     9.5074 Mo            1 RES     
     328 Mo           4.5962    50.3374     9.4534 Mo            1 RES     
     329 Nb          11.8602    31.9064     9.3174 Nb            1 RES     
     330 Mo          15.1592    33.4564     8.3604 Mo            1 RES     
     331 Mo           2.1302    40.6064     8.4264 Mo            1 RES     
     332 Mo          12.7022    39.6284     8.4244 Mo            1 RES     
     333 Mo          17.6172    27.2834     8.4264 Mo            1 RES     
     334 Mo           0.8532    34.1434     8.3924 Mo            1 RES     
     335 Mo          11.4262    46.0924     8.3904 Mo            1 RES     
     336 Mo          18.8942    47.4674     8.3924 Mo            1 RES     
     337 Mo           0.0802    37.6504     9.5084 Mo            1 RES     
     338 Mo          10.6532    42.5864     9.5074 Mo            1 RES     
     339 Mo          19.6672    50.9734     9.5094 Mo            1 RES     
     340 Mo          19.7542    41.1534     9.4704 Mo            1 RES     
     341 V            9.1822    39.0834     9.4694 V             1 RES     
     342 Mo          -0.0068    27.8294     9.4714 Mo            1 RES     
     343 Nb          17.6462    44.0074     8.3844 Nb            1 RES     
     344 Mo           7.0732    36.2294     8.3844 Mo            1 RES     
     345 Mo           2.1022    30.6844     8.3854 Mo            1 RES     
     346 V           16.0842    40.7174     9.5074 V             1 RES     
     347 V            5.5132    39.5194     9.5074 V             1 RES     
     348 Mo           3.6632    27.3934     9.5074 Mo            1 RES     
     349 Mo           4.5782    43.2224     9.4534 Mo            1 RES     
     350 Mo          15.1512    37.0134     9.4524 Mo            1 RES     
     351 Mo          15.1692    29.8994     9.4534 Mo            1 RES     
     352 Mo          18.4572    35.0074     9.3164 Mo            1 RES     
     353 Te           7.8862    45.2304     9.3174 Te            1 RES     
     354 Mo           1.2902    48.3304     9.3174 Mo            1 RES     
     355 Mo          12.1922    28.6184     8.4714 Mo            1 RES     
     356 Mo          18.1272    38.2964     8.4704 Mo            1 RES     
     357 Te           7.5552    41.9414     8.4714 Te            1 RES     
     358 Te           1.6202    51.6193     8.4714 Te            1 RES     
     359 Mo          16.1322    49.8474     8.9714 Mo            1 RES     
     360 Nb          14.1872    43.7124     8.9704 Nb            1 RES     
     361 Nb           3.6142    36.5234     8.9704 Nb            1 RES     
     362 Nb           5.5602    30.3884     8.9704 Nb            1 RES     
     363 Mo           4.5882    33.4564     9.4364 Mo            1 RES     
     364 Mo          15.1602    46.7794     9.4354 Mo            1 RES     
     365 O            4.5882    46.7794     6.6884 O             1 RES     
     366 O            4.5882    33.4564    11.1044 O             1 RES     
     367 O            7.0342    52.9264     6.7514 O             1 RES     
     368 O            8.3272    32.7074     6.7194 O             1 RES     
     369 O            9.0922    29.2534    11.1864 O             1 RES     
     370 O           10.5912    52.4164    11.1484 O             1 RES     
     371 O           12.6312    49.6324     6.7144 O             1 RES     
     372 O           14.1922    52.8154    11.1844 O             1 RES     
     373 O           12.1962    28.6174     6.7604 O             1 RES     
     374 O            4.6082    50.3104    11.1314 O             1 RES     
     375 O           11.8762    31.9854    10.9934 O             1 RES     
     376 O           16.2732    50.0444    10.7914 O             1 RES     
     377 O           15.5732    31.6384     8.9324 O             1 RES     
     378 O           16.6952    28.9564     8.9484 O             1 RES     
     379 O            5.4182    27.2084     8.9674 O             1 RES     
     380 O           16.8342    47.7334     8.8384 O             1 RES     
     381 O           19.3602    28.0114     8.9614 O             1 RES     
     382 O           20.9642    52.4603     9.0664 O             1 RES     
     383 O           18.8552    49.3554     8.9734 O             1 RES     
     384 O            3.8372    31.7084     8.8234 O             1 RES     
     385 O            0.7082    29.5024     8.9954 O             1 RES     
     386 O            0.2682    50.0984     8.9514 O             1 RES     
     387 O           20.8252    47.4704     8.8344 O             1 RES     
     388 O            1.8062    27.0764     8.8774 O             1 RES     
     389 O            2.6442    49.8574     8.9564 O             1 RES     
     390 O            2.6672    47.2184     8.7704 O             1 RES     
     391 O            1.1932    32.3104     8.7914 O             1 RES     
     392 O            3.4812    29.2394     8.8864 O             1 RES     
     393 O            3.5392    52.0564     9.0664 O             1 RES     
     394 O            7.8132    28.0794     8.9214 O             1 RES     
     395 O           15.1592    33.4564     6.6884 O             1 RES     
     396 O           15.1602    46.7794    11.1044 O             1 RES     
     397 O            2.1422    40.6304     6.7524 O             1 RES     
     398 O           12.7142    39.6044     6.7504 O             1 RES     
     399 O           17.6062    27.3064     6.7524 O             1 RES     
     400 O            0.8462    34.2044     6.7214 O             1 RES     
     401 O           11.4202    46.0314     6.7194 O             1 RES     
     402 O           18.9012    47.5284     6.7214 O             1 RES     
     403 O            0.0802    37.6594    11.1874 O             1 RES     
     404 O           10.6542    42.5764    11.1864 O             1 RES     
     405 O           19.6672    50.9824    11.1884 O             1 RES     
     406 O           19.7282    41.1424    11.1484 O             1 RES     
     407 O            9.1562    39.0934    11.1474 O             1 RES     
     408 O            0.0192    27.8194    11.1484 O             1 RES     
     409 O           17.6902    43.9294     6.7144 O             1 RES     
     410 O            7.1162    36.3084     6.7144 O             1 RES     
     411 O            2.0572    30.6054     6.7144 O             1 RES     
     412 O           16.1252    40.7454    11.1834 O             1 RES     
     413 O            5.5562    39.4914    11.1834 O             1 RES     
     414 O            3.6232    27.4224    11.1834 O             1 RES     
     415 O           18.1232    38.2984     6.7594 O             1 RES     
     416 O            7.5502    41.9404     6.7604 O             1 RES     
     417 O            1.6242    51.6224     6.7594 O             1 RES     
     418 O            4.5652    43.2494    11.1314 O             1 RES     
     419 O           15.1392    36.9874    11.1304 O             1 RES     
     420 O           15.1822    29.9264    11.1314 O             1 RES     
     421 O           18.4402    34.9314    10.9924 O             1 RES     
     422 O            7.8712    45.3084    10.9934 O             1 RES     
     423 O            1.3062    48.2534    10.9934 O             1 RES     
     424 O           14.0462    43.5144    10.7894 O             1 RES     
     425 O            3.4742    36.7204    10.7904 O             1 RES     
     426 O            5.7012    30.1914    10.7904 O             1 RES     
     427 O           14.7462    35.2754     8.9324 O             1 RES     
     428 O            4.1742    44.9614     8.9324 O             1 RES     
     429 O            5.0012    48.5984     8.9324 O             1 RES     
     430 O           13.6242    37.9564     8.9494 O             1 RES     
     431 O            3.0522    42.2794     8.9484 O             1 RES     
     432 O            6.1232    51.2794     8.9494 O             1 RES     
     433 O            3.7582    39.7044     8.9694 O             1 RES     
     434 O           14.3302    40.5324     8.9674 O             1 RES     
     435 O           15.9892    53.0284     8.9694 O             1 RES     
     436 O           13.4852    45.8254     8.8374 O             1 RES     
     437 O            2.9132    34.4104     8.8384 O             1 RES     
     438 O            6.2622    32.5024     8.8374 O             1 RES     
     439 O           10.9592    38.9024     8.9594 O             1 RES     
     440 O            0.3882    41.3344     8.9614 O             1 RES     
     441 O            8.7882    52.2254     8.9604 O             1 RES     
     442 O            9.3552    41.1004     9.0654 O             1 RES     
     443 O           19.9272    39.1374     9.0654 O             1 RES     
     444 O           10.3922    27.7764     9.0664 O             1 RES     
     445 O           11.4642    44.2044     8.9714 O             1 RES     
     446 O            0.8922    36.0314     8.9734 O             1 RES     
     447 O            8.2822    30.8814     8.9714 O             1 RES     
     448 O            5.3372    35.2044     8.8224 O             1 RES     
     449 O           15.9102    45.0324     8.8224 O             1 RES     
     450 O           14.4102    48.5273     8.8234 O             1 RES     
     451 O            8.4672    37.4114     8.9934 O             1 RES     
     452 O           19.0392    42.8254     8.9954 O             1 RES     
     453 O           11.2802    50.7343     8.9944 O             1 RES     
     454 O            8.9082    43.4624     8.9524 O             1 RES     
     455 O           19.4792    36.7754     8.9514 O             1 RES     
     456 O           10.8392    30.1384     8.9524 O             1 RES     
     457 O            9.4952    46.0894     8.8324 O             1 RES     
     458 O           20.0662    34.1474     8.8344 O             1 RES     
     459 O           10.2522    32.7664     8.8324 O             1 RES     
     460 O            7.3692    39.8374     8.8754 O             1 RES     
     461 O           17.9412    40.3994     8.8774 O             1 RES     
     462 O           12.3782    26.5144     8.8764 O             1 RES     
     463 O            6.5312    43.7034     8.9594 O             1 RES     
     464 O           17.1032    36.5344     8.9554 O             1 RES     
     465 O           13.2162    30.3794     8.9594 O             1 RES     
     466 O            6.5092    46.3414     8.7704 O             1 RES     
     467 O           17.0802    33.8954     8.7704 O             1 RES     
     468 O           13.2382    33.0184     8.7704 O             1 RES     
     469 O            7.9812    34.6024     8.7904 O             1 RES     
     470 O           18.5542    45.6344     8.7914 O             1 RES     
     471 O           11.7662    47.9254     8.7904 O             1 RES     
     472 O            5.6942    37.6734     8.8864 O             1 RES     
     473 O           16.2662    42.5634     8.8854 O             1 RES     
     474 O           14.0532    50.9974     8.8864 O             1 RES     
     475 O            5.6372    41.5044     9.0664 O             1 RES     
     476 O           16.2092    38.7334     9.0654 O             1 RES     
     477 O           14.1112    28.1804     9.0664 O             1 RES     
     478 O            1.3622    38.8334     8.9244 O             1 RES     
     479 O           11.9342    41.4024     8.9214 O             1 RES     
     480 O           18.1732    52.2554     8.9154 O             1 RES     
     481 Te          26.0731    46.7794     8.3604 Te            1 RES     
     482 Mo          28.5301    52.9514     8.4244 Mo            1 RES     
     483 Te          29.8051    32.7684     8.3904 Te            1 RES     
     484 Mo          30.5791    29.2624     9.5074 Mo            1 RES     
     485 Mo          32.0501    52.4074     9.4704 Mo            1 RES     
     486 Mo          34.1591    49.5524     8.3844 Mo            1 RES     
     487 Mo          35.7201    52.8434     9.5074 Mo            1 RES     
     488 Mo          26.0811    50.3374     9.4534 Mo            1 RES     
     489 Te          33.3451    31.9064     9.3174 Te            1 RES     
     490 Mo          36.6441    33.4564     8.3604 Mo            1 RES     
     491 Mo          23.6151    40.6064     8.4264 Mo            1 RES     
     492 Mo          34.1871    39.6284     8.4244 Mo            1 RES     
     493 V           39.1021    27.2834     8.4264 V             1 RES     
     494 Mo          22.3381    34.1434     8.3924 Mo            1 RES     
     495 Mo          32.9111    46.0924     8.3904 Mo            1 RES     
     496 Te          40.3791    47.4674     8.3924 Te            1 RES     
     497 Mo          21.5651    37.6504     9.5084 Mo            1 RES     
     498 Mo          32.1381    42.5864     9.5074 Mo            1 RES     
     499 Mo          41.1521    50.9734     9.5094 Mo            1 RES     
     500 Mo          41.2391    41.1534     9.4704 Mo            1 RES     
     501 Mo          30.6671    39.0834     9.4694 Mo            1 RES     
     502 Mo          21.4781    27.8294     9.4714 Mo            1 RES     
     503 Mo          39.1311    44.0074     8.3844 Mo            1 RES     
     504 Mo          28.5581    36.2294     8.3844 Mo            1 RES     
     505 Nb          23.5871    30.6844     8.3854 Nb            1 RES     
     506 Mo          37.5691    40.7174     9.5074 Mo            1 RES     
     507 Mo          26.9981    39.5194     9.5074 Mo            1 RES     
     508 Mo          25.1481    27.3934     9.5074 Mo            1 RES     
     509 Mo          26.0631    43.2224     9.4534 Mo            1 RES     
     510 Mo          36.6361    37.0134     9.4524 Mo            1 RES     
     511 V           36.6541    29.8994     9.4534 V             1 RES     
     512 Mo          39.9421    35.0074     9.3164 Mo            1 RES     
     513 Mo          29.3711    45.2304     9.3174 Mo            1 RES     
     514 Mo          22.7751    48.3304     9.3174 Mo            1 RES     
     515 Mo          33.6771    28.6184     8.4714 Mo            1 RES     
     516 Mo          39.6121    38.2964     8.4704 Mo            1 RES     
     517 Mo          29.0401    41.9414     8.4714 Mo            1 RES     
     518 Mo          23.1051    51.6193     8.4714 Mo            1 RES     
     519 Mo          37.6171    49.8474     8.9714 Mo            1 RES     
     520 Mo          35.6721    43.7124     8.9704 Mo            1 RES     
     521 Mo          25.0991    36.5234     8.9704 Mo            1 RES     
     522 Mo          27.0451    30.3884     8.9704 Mo            1 RES     
     523 Mo          26.0731    33.4564     9.4364 Mo            1 RES     
     524 Te          36.6451    46.7794     9.4354 Te            1 RES     
     525 O           26.0731    46.7794     6.6884 O             1 RES     
     526 O           26.0731    33.4564    11.1044 O             1 RES     
     527 O           28.5191    52.9264     6.7514 O             1 RES     
     528 O           29.8121    32.7074     6.7194 O             1 RES     
     529 O           30.5771    29.2534    11.1864 O             1 RES     
     530 O           32.0761    52.4164    11.1484 O             1 RES     
     531 O           34.1161    49.6324     6.7144 O             1 RES     
     532 O           35.6771    52.8154    11.1844 O             1 RES     
     533 O           33.6811    28.6174     6.7604 O             1 RES     
     534 O           26.0931    50.3104    11.1314 O             1 RES     
     535 O           33.3611    31.9854    10.9934 O             1 RES     
     536 O           37.7581    50.0444    10.7914 O             1 RES     
     537 O           37.0581    31.6384     8.9324 O             1 RES     
     538 O           38.1801    28.9564     8.9484 O             1 RES     
     539 O           26.9031    27.2084     8.9674 O             1 RES     
     540 O           38.3191    47.7334     8.8384 O             1 RES     
     541 O           40.8451    28.0114     8.9614 O             1 RES     
     542 O           42.4491    52.4603     9.0664 O             1 RES     
     543 O           40.3401    49.3554     8.9734 O             1 RES     
     544 O           25.3221    31.7084     8.8234 O             1 RES     
     545 O           22.1931    29.5024     8.9954 O             1 RES     
     546 O           21.7531    50.0984     8.9514 O             1 RES     
     547 O           42.3101    47.4704     8.8344 O             1 RES     
     548 O           23.2911    27.0764     8.8774 O             1 RES     
     549 O           24.1291    49.8574     8.9564 O             1 RES     
     550 O           24.1521    47.2184     8.7704 O             1 RES     
     551 O           22.6781    32.3104     8.7914 O             1 RES     
     552 O           24.9661    29.2394     8.8864 O             1 RES     
     553 O           25.0241    52.0564     9.0664 O             1 RES     
     554 O           29.2981    28.0794     8.9214 O             1 RES     
     555 O           36.6441    33.4564     6.6884 O             1 RES     
     556 O           36.6451    46.7794    11.1044 O             1 RES     
     557 O           23.6271    40.6304     6.7524 O             1 RES     
     558 O           34.1991    39.6044     6.7504 O             1 RES     
     559 O           39.0911    27.3064     6.7524 O             1 RES     
     560 O           22.3311    34.2044     6.7214 O             1 RES     
     561 O           32.9051    46.0314     6.7194 O             1 RES     
     562 O           40.3861    47.5284     6.7214 O             1 RES     
     563 O           21.5651    37.6594    11.1874 O             1 RES     
     564 O           32.1391    42.5764    11.1864 O             1 RES     
     565 O           41.1521    50.9824    11.1884 O             1 RES     
     566 O           41.2131    41.1424    11.1484 O             1 RES     
     567 O           30.6411    39.0934    11.1474 O             1 RES     
     568 O           21.5041    27.8194    11.1484 O             1 RES     
     569 O           39.1751    43.9294     6.7144 O             1 RES     
     570 O           28.6011    36.3084     6.7144 O             1 RES     
     571 O           23.5421    30.6054     6.7144 O             1 RES     
     572 O           37.6101    40.7454    11.1834 O             1 RES     
     573 O           27.0411    39.4914    11.1834 O             1 RES     
     574 O           25.1081    27.4224    11.1834 O             1 RES     
     575 O           39.6081    38.2984     6.7594 O             1 RES     
     576 O           29.0351    41.9404     6.7604 O             1 RES     
     577 O           23.1091    51.6224     6.7594 O             1 RES     
     578 O           26.0501    43.2494    11.1314 O             1 RES     
     579 O           36.6241    36.9874    11.1304 O             1 RES     
     580 O           36.6671    29.9264    11.1314 O             1 RES     
     581 O           39.9251    34.9314    10.9924 O             1 RES     
     582 O           29.3561    45.3084    10.9934 O             1 RES     
     583 O           22.7911    48.2534    10.9934 O             1 RES     
     584 O           35.5311    43.5144    10.7894 O             1 RES     
     585 O           24.9591    36.7204    10.7904 O             1 RES     
     586 O           27.1861    30.1914    10.7904 O             1 RES     
     587 O           36.2311    35.2754     8.9324 O             1 RES     
     588 O           25.6591    44.9614     8.9324 O             1 RES     
     589 O           26.4861    48.5984     8.9324 O             1 RES     
     590 O           35.1091    37.9564     8.9494 O             1 RES     
     591 O           24.5371    42.2794     8.9484 O             1 RES     
     592 O           27.6081    51.2794     8.9494 O             1 RES     
     593 O           25.2431    39.7044     8.9694 O             1 RES     
     594 O           35.8151    40.5324     8.9674 O             1 RES     
     595 O           37.4741    53.0284     8.9694 O             1 RES     
     596 O           34.9701    45.8254     8.8374 O             1 RES     
     597 O           24.3981    34.4104     8.8384 O             1 RES     
     598 O           27.7471    32.5024     8.8374 O             1 RES     
     599 O           32.4441    38.9024     8.9594 O             1 RES     
     600 O           21.8731    41.3344     8.9614 O             1 RES     
     601 O           30.2731    52.2254     8.9604 O             1 RES     
     602 O           30.8401    41.1004     9.0654 O             1 RES     
     603 O           41.4121    39.1374     9.0654 O             1 RES     
     604 O           31.8771    27.7764     9.0664 O             1 RES     
     605 O           32.9491    44.2044     8.9714 O             1 RES     
     606 O           22.3771    36.0314     8.9734 O             1 RES     
     607 O           29.7671    30.8814     8.9714 O             1 RES     
     608 O           26.8221    35.2044     8.8224 O             1 RES     
     609 O           37.3951    45.0324     8.8224 O             1 RES     
     610 O           35.8951    48.5273     8.8234 O             1 RES     
     611 O           29.9521    37.4114     8.9934 O             1 RES     
     612 O           40.5241    42.8254     8.9954 O             1 RES     
     613 O           32.7651    50.7343     8.9944 O             1 RES     
     614 O           30.3931    43.4624     8.9524 O             1 RES     
     615 O           40.9641    36.7754     8.9514 O             1 RES     
     616 O           32.3241    30.1384     8.9524 O             1 RES     
     617 O           30.9801    46.0894     8.8324 O             1 RES     
     618 O           41.5511    34.1474     8.8344 O             1 RES     
     619 O           31.7371    32.7664     8.8324 O             1 RES     
     620 O           28.8541    39.8374     8.8754 O             1 RES     
     621 O           39.4261    40.3994     8.8774 O             1 RES     
     622 O           33.8631    26.5144     8.8764 O             1 RES     
     623 O           28.0161    43.7034     8.9594 O             1 RES     
     624 O           38.5881    36.5344     8.9554 O             1 RES     
     625 O           34.7011    30.3794     8.9594 O             1 RES     
     626 O           27.9941    46.3414     8.7704 O             1 RES     
     627 O           38.5651    33.8954     8.7704 O             1 RES     
     628 O           34.7231    33.0184     8.7704 O             1 RES     
     629 O           29.4661    34.6024     8.7904 O             1 RES     
     630 O           40.0391    45.6344     8.7914 O             1 RES     
     631 O           33.2511    47.9254     8.7904 O             1 RES     
     632 O           27.1791    37.6734     8.8864 O             1 RES     
     633 O           37.7511    42.5634     8.8854 O             1 RES     
     634 O           35.5381    50.9974     8.8864 O             1 RES     
     635 O           27.1221    41.5044     9.0664 O             1 RES     
     636 O           37.6941    38.7334     9.0654 O             1 RES     
     637 O           35.5961    28.1804     9.0664 O             1 RES     
     638 O           22.8471    38.8334     8.9244 O             1 RES     
     639 O           33.4191    41.4024     8.9214 O             1 RES     
     640 O           39.6581    52.2554     8.9154 O             1 RES     
     641 Mo           4.5882    20.1321    12.3636 Mo            1 RES     
     642 Mo           7.0452    26.3041    12.4276 Mo            1 RES     
     643 Mo           8.3202     6.1211    12.3936 Mo            1 RES     
     644 V            9.0942     2.6151    13.5106 V             1 RES     
     645 Nb          10.5652    25.7601    13.4736 Nb            1 RES     
     646 Mo          12.6742    22.9051    12.3876 Mo            1 RES     
     647 V           14.2352    26.1961    13.5106 V             1 RES     
     648 Mo           4.5962    23.6901    13.4566 Mo            1 RES     
     649 Mo          11.8602     5.2591    13.3206 Mo            1 RES     
     650 Mo          15.1592     6.8091    12.3636 Mo            1 RES     
     651 Mo           2.1302    13.9591    12.4296 Mo            1 RES     
     652 Mo          12.7022    12.9811    12.4276 Mo            1 RES     
     653 Mo          17.6172     0.6361    12.4296 Mo            1 RES     
     654 Mo           0.8532     7.4961    12.3956 Mo            1 RES     
     655 Mo          11.4262    19.4451    12.3936 Mo            1 RES     
     656 Nb          18.8942    20.8201    12.3956 Nb            1 RES     
     657 Mo           0.0802    11.0031    13.5116 Mo            1 RES     
     658 Mo          10.6532    15.9391    13.5106 Mo            1 RES     
     659 Mo          19.6672    24.3261    13.5126 Mo            1 RES     
     660 Nb          19.7542    14.5061    13.4736 Nb            1 RES     
     661 Mo           9.1822    12.4361    13.4726 Mo            1 RES     
     662 Mo          -0.0068     1.1821    13.4746 Mo            1 RES     
     663 Mo          17.6462    17.3601    12.3876 Mo            1 RES     
     664 Nb           7.0732     9.5821    12.3876 Nb            1 RES     
     665 Mo           2.1022     4.0371    12.3886 Mo            1 RES     
     666 Mo          16.0842    14.0701    13.5106 Mo            1 RES     
     667 Mo           5.5132    12.8721    13.5106 Mo            1 RES     
     668 Mo           3.6632     0.7461    13.5106 Mo            1 RES     
     669 Mo           4.5782    16.5751    13.4566 Mo            1 RES     
     670 Te          15.1512    10.3661    13.4556 Te            1 RES     
     671 Mo          15.1692     3.2521    13.4566 Mo            1 RES     
     672 Mo          18.4572     8.3601    13.3196 Mo            1 RES     
     673 Mo           7.8862    18.5831    13.3206 Mo            1 RES     
     674 Mo           1.2902    21.6831    13.3206 Mo            1 RES     
     675 Mo          12.1922     1.9711    12.4746 Mo            1 RES     
     676 Nb          18.1272    11.6491    12.4736 Nb            1 RES     
     677 Nb           7.5552    15.2941    12.4746 Nb            1 RES     
     678 Mo           1.6202    24.9721    12.4746 Mo            1 RES     
     679 Mo          16.1322    23.2001    12.9746 Mo            1 RES     
     680 Mo          14.1872    17.0651    12.9736 Mo            1 RES     
     681 Mo           3.6142     9.8761    12.9736 Mo            1 RES     
     682 Mo           5.5602     3.7411    12.9736 Mo            1 RES     
     683 V            4.5882     6.8091    13.4396 V             1 RES     
     684 Mo          15.1602    20.1321    13.4386 Mo            1 RES     
     685 O            4.5882    20.1321    10.6916 O             1 RES     
     686 O            4.5882     6.8091    15.1076 O             1 RES     
     687 O            7.0342    26.2791    10.7546 O             1 RES     
     688 O            8.3272     6.0601    10.7226 O             1 RES     
     689 O            9.0922     2.6061    15.1896 O             1 RES     
     690 O           10.5912    25.7691    15.1516 O             1 RES     
     691 O           12.6312    22.9851    10.7176 O             1 RES     
     692 O           14.1922    26.1681    15.1876 O             1 RES     
     693 O           12.1962     1.9701    10.7636 O             1 RES     
     694 O            4.6082    23.6631    15.1346 O             1 RES     
     695 O           11.8762     5.3381    14.9966 O             1 RES     
     696 O           16.2732    23.3971    14.7946 O             1 RES     
     697 O           15.5732     4.9911    12.9356 O             1 RES     
     698 O           16.6952     2.3091    12.9516 O             1 RES     
     699 O            5.4182     0.5611    12.9706 O             1 RES     
     700 O           16.8342    21.0861    12.8416 O             1 RES     
     701 O           19.3602     1.3641    12.9646 O             1 RES     
     702 O           20.9642    25.8131    13.0696 O             1 RES     
     703 O           18.8552    22.7081    12.9766 O             1 RES     
     704 O            3.8372     5.0611    12.8266 O             1 RES     
     705 O            0.7082     2.8551    12.9986 O             1 RES     
     706 O            0.2682    23.4511    12.9546 O             1 RES     
     707 O           20.8252    20.8231    12.8376 O             1 RES     
     708 O            1.8062     0.4291    12.8806 O             1 RES     
     709 O            2.6442    23.2101    12.9596 O             1 RES     
     710 O            2.6672    20.5711    12.7736 O             1 RES     
     711 O            1.1932     5.6631    12.7946 O             1 RES     
     712 O            3.4812     2.5921    12.8896 O             1 RES     
     713 O            3.5392    25.4091    13.0696 O             1 RES     
     714 O            7.8132     1.4321    12.9246 O             1 RES     
     715 O           15.1592     6.8091    10.6916 O             1 RES     
     716 O           15.1602    20.1321    15.1076 O             1 RES     
     717 O            2.1422    13.9831    10.7556 O             1 RES     
     718 O           12.7142    12.9571    10.7536 O             1 RES     
     719 O           17.6062     0.6591    10.7556 O             1 RES     
     720 O            0.8462     7.5571    10.7246 O             1 RES     
     721 O           11.4202    19.3841    10.7226 O             1 RES     
     722 O           18.9012    20.8811    10.7246 O             1 RES     
     723 O            0.0802    11.0121    15.1906 O             1 RES     
     724 O           10.6542    15.9291    15.1896 O             1 RES     
     725 O           19.6672    24.3351    15.1916 O             1 RES     
     726 O           19.7282    14.4951    15.1516 O             1 RES     
     727 O            9.1562    12.4461    15.1506 O             1 RES     
     728 O            0.0192     1.1721    15.1516 O             1 RES     
     729 O           17.6902    17.2821    10.7176 O             1 RES     
     730 O            7.1162     9.6611    10.7176 O             1 RES     
     731 O            2.0572     3.9581    10.7176 O             1 RES     
     732 O           16.1252    14.0981    15.1866 O             1 RES     
     733 O            5.5562    12.8441    15.1866 O             1 RES     
     734 O            3.6232     0.7751    15.1866 O             1 RES     
     735 O           18.1232    11.6511    10.7626 O             1 RES     
     736 O            7.5502    15.2931    10.7636 O             1 RES     
     737 O            1.6242    24.9751    10.7626 O             1 RES     
     738 O            4.5652    16.6021    15.1346 O             1 RES     
     739 O           15.1392    10.3401    15.1336 O             1 RES     
     740 O           15.1822     3.2791    15.1346 O             1 RES     
     741 O           18.4402     8.2841    14.9956 O             1 RES     
     742 O            7.8712    18.6611    14.9966 O             1 RES     
     743 O            1.3062    21.6061    14.9966 O             1 RES     
     744 O           14.0462    16.8671    14.7926 O             1 RES     
     745 O            3.4742    10.0731    14.7936 O             1 RES     
     746 O            5.7012     3.5441    14.7936 O             1 RES     
     747 O           14.7462     8.6281    12.9356 O             1 RES     
     748 O            4.1742    18.3141    12.9356 O             1 RES     
     749 O            5.0012    21.9511    12.9356 O             1 RES     
     750 O           13.6242    11.3091    12.9526 O             1 RES     
     751 O            3.0522    15.6321    12.9516 O             1 RES     
     752 O            6.1232    24.6321    12.9526 O             1 RES     
     753 O            3.7582    13.0571    12.9726 O             1 RES     
     754 O           14.3302    13.8851    12.9706 O             1 RES     
     755 O           15.9892    26.3811    12.9726 O             1 RES     
     756 O           13.4852    19.1781    12.8406 O             1 RES     
     757 O            2.9132     7.7631    12.8416 O             1 RES     
     758 O            6.2622     5.8551    12.8406 O             1 RES     
     759 O           10.9592    12.2551    12.9626 O             1 RES     
     760 O            0.3882    14.6871    12.9646 O             1 RES     
     761 O            8.7882    25.5781    12.9636 O             1 RES     
     762 O            9.3552    14.4531    13.0686 O             1 RES     
     763 O           19.9272    12.4901    13.0686 O             1 RES     
     764 O           10.3922     1.1291    13.0696 O             1 RES     
     765 O           11.4642    17.5571    12.9746 O             1 RES     
     766 O            0.8922     9.3841    12.9766 O             1 RES     
     767 O            8.2822     4.2341    12.9746 O             1 RES     
     768 O            5.3372     8.5571    12.8256 O             1 RES     
     769 O           15.9102    18.3851    12.8256 O             1 RES     
     770 O           14.4102    21.8801    12.8266 O             1 RES     
     771 O            8.4672    10.7641    12.9966 O             1 RES     
     772 O           19.0392    16.1781    12.9986 O             1 RES     
     773 O           11.2802    24.0871    12.9976 O             1 RES     
     774 O            8.9082    16.8151    12.9556 O             1 RES     
     775 O           19.4792    10.1281    12.9546 O             1 RES     
     776 O           10.8392     3.4911    12.9556 O             1 RES     
     777 O            9.4952    19.4421    12.8356 O             1 RES     
     778 O           20.0662     7.5001    12.8376 O             1 RES     
     779 O           10.2522     6.1191    12.8356 O             1 RES     
     780 O            7.3692    13.1901    12.8786 O             1 RES     
     781 O           17.9412    13.7521    12.8806 O             1 RES     
     782 O           12.3782    -0.1329    12.8796 O             1 RES     
     783 O            6.5312    17.0561    12.9626 O             1 RES     
     784 O           17.1032     9.8871    12.9586 O             1 RES     
     785 O           13.2162     3.7321    12.9626 O             1 RES     
     786 O            6.5092    19.6941    12.7736 O             1 RES     
     787 O           17.0802     7.2481    12.7736 O             1 RES     
     788 O           13.2382     6.3711    12.7736 O             1 RES     
     789 O            7.9812     7.9551    12.7936 O             1 RES     
     790 O           18.5542    18.9871    12.7946 O             1 RES     
     791 O           11.7662    21.2781    12.7936 O             1 RES     
     792 O            5.6942    11.0261    12.8896 O             1 RES     
     793 O           16.2662    15.9161    12.8886 O             1 RES     
     794 O           14.0532    24.3501    12.8896 O             1 RES     
     795 O            5.6372    14.8571    13.0696 O             1 RES     
     796 O           16.2092    12.0861    13.0686 O             1 RES     
     797 O           14.1112     1.5331    13.0696 O             1 RES     
     798 O            1.3622    12.1861    12.9276 O             1 RES     
     799 O           11.9342    14.7551    12.9246 O             1 RES     
     800 O           18.1732    25.6081    12.9186 O             1 RES     
     801 Mo          26.0731    20.1321    12.3636 Mo            1 RES     
     802 Te          28.5301    26.3041    12.4276 Te            1 RES     
     803 Mo          29.8051     6.1211    12.3936 Mo            1 RES     
     804 Mo          30.5791     2.6151    13.5106 Mo            1 RES     
     805 Mo          32.0501    25.7601    13.4736 Mo            1 RES     
     806 Mo          34.1591    22.9051    12.3876 Mo            1 RES     
     807 Mo          35.7201    26.1961    13.5106 Mo            1 RES     
     808 Mo          26.0811    23.6901    13.4566 Mo            1 RES     
     809 Mo          33.3451     5.2591    13.3206 Mo            1 RES     
     810 V           36.6441     6.8091    12.3636 V             1 RES     
     811 Nb          23.6151    13.9591    12.4296 Nb            1 RES     
     812 Mo          34.1871    12.9811    12.4276 Mo            1 RES     
     813 Mo          39.1021     0.6361    12.4296 Mo            1 RES     
     814 Mo          22.3381     7.4961    12.3956 Mo            1 RES     
     815 Mo          32.9111    19.4451    12.3936 Mo            1 RES     
     816 Mo          40.3791    20.8201    12.3956 Mo            1 RES     
     817 Mo          21.5651    11.0031    13.5116 Mo            1 RES     
     818 Mo          32.1381    15.9391    13.5106 Mo            1 RES     
     819 Mo          41.1521    24.3261    13.5126 Mo            1 RES     
     820 V           41.2391    14.5061    13.4736 V             1 RES     
     821 Mo          30.6671    12.4361    13.4726 Mo            1 RES     
     822 Mo          21.4781     1.1821    13.4746 Mo            1 RES     
     823 Mo          39.1311    17.3601    12.3876 Mo            1 RES     
     824 Mo          28.5581     9.5821    12.3876 Mo            1 RES     
     825 Mo          23.5871     4.0371    12.3886 Mo            1 RES     
     826 V           37.5691    14.0701    13.5106 V             1 RES     
     827 Te          26.9981    12.8721    13.5106 Te            1 RES     
     828 Te          25.1481     0.7461    13.5106 Te            1 RES     
     829 Mo          26.0631    16.5751    13.4566 Mo            1 RES     
     830 Mo          36.6361    10.3661    13.4556 Mo            1 RES     
     831 Nb          36.6541     3.2521    13.4566 Nb            1 RES     
     832 Mo          39.9421     8.3601    13.3196 Mo            1 RES     
     833 Mo          29.3711    18.5831    13.3206 Mo            1 RES     
     834 Mo          22.7751    21.6831    13.3206 Mo            1 RES     
     835 Mo          33.6771     1.9711    12.4746 Mo            1 RES     
     836 Mo          39.6121    11.6491    12.4736 Mo            1 RES     
     837 Mo          29.0401    15.2941    12.4746 Mo            1 RES     
     838 Te          23.1051    24.9721    12.4746 Te            1 RES     
     839 Nb          37.6171    23.2001    12.9746 Nb            1 RES     
     840 V           35.6721    17.0651    12.9736 V             1 RES     
     841 Mo          25.0991     9.8761    12.9736 Mo            1 RES     
     842 Mo          27.0451     3.7411    12.9736 Mo            1 RES     
     843 Te          26.0731     6.8091    13.4396 Te            1 RES     
     844 Mo          36.6451    20.1321    13.4386 Mo            1 RES     
     845 O           26.0731    20.1321    10.6916 O             1 RES     
     846 O           26.0731     6.8091    15.1076 O             1 RES     
     847 O           28.5191    26.2791    10.7546 O             1 RES     
     848 O           29.8121     6.0601    10.7226 O             1 RES     
     849 O           30.5771     2.6061    15.1896 O             1 RES     
     850 O           32.0761    25.7691    15.1516 O             1 RES     
     851 O           34.1161    22.9851    10.7176 O             1 RES     
     852 O           35.6771    26.1681    15.1876 O             1 RES     
     853 O           33.6811     1.9701    10.7636 O             1 RES     
     854 O           26.0931    23.6631    15.1346 O             1 RES     
     855 O           33.3611     5.3381    14.9966 O             1 RES     
     856 O           37.7581    23.3971    14.7946 O             1 RES     
     857 O           37.0581     4.9911    12.9356 O             1 RES     
     858 O           38.1801     2.3091    12.9516 O             1 RES     
     859 O           26.9031     0.5611    12.9706 O             1 RES     
     860 O           38.3191    21.0861    12.8416 O             1 RES     
     861 O           40.8451     1.3641    12.9646 O             1 RES     
     862 O           42.4491    25.8131    13.0696 O             1 RES     
     863 O           40.3401    22.7081    12.9766 O             1 RES     
     864 O           25.3221     5.0611    12.8266 O             1 RES     
     865 O           22.1931     2.8551    12.9986 O             1 RES     
     866 O           21.7531    23.4511    12.9546 O             1 RES     
     867 O           42.3101    20.8231    12.8376 O             1 RES     
     868 O           23.2911     0.4291    12.8806 O             1 RES     
     869 O           24.1291    23.2101    12.9596 O             1 RES     
     870 O           24.1521    20.5711    12.7736 O             1 RES     
     871 O           22.6781     5.6631    12.7946 O             1 RES     
     872 O           24.9661     2.5921    12.8896 O             1 RES     
     873 O           25.0241    25.4091    13.0696 O             1 RES     
     874 O           29.2981     1.4321    12.9246 O             1 RES     
     875 O           36.6441     6.8091    10.6916 O             1 RES     
     876 O           36.6451    20.1321    15.1076 O             1 RES     
     877 O           23.6271    13.9831    10.7556 O             1 RES     
     878 O           34.1991    12.9571    10.7536 O             1 RES     
     879 O           39.0911     0.6591    10.7556 O             1 RES     
     880 O           22.3311     7.5571    10.7246 O             1 RES     
     881 O           32.9051    19.3841    10.7226 O             1 RES     
     882 O           40.3861    20.8811    10.7246 O             1 RES     
     883 O           21.5651    11.0121    15.1906 O             1 RES     
     884 O           32.1391    15.9291    15.1896 O             1 RES     
     885 O           41.1521    24.3351    15.1916 O             1 RES     
     886 O           41.2131    14.4951    15.1516 O             1 RES     
     887 O           30.6411    12.4461    15.1506 O             1 RES     
     888 O           21.5041     1.1721    15.1516 O             1 RES     
     889 O           39.1751    17.2821    10.7176 O             1 RES     
     890 O           28.6011     9.6611    10.7176 O             1 RES     
     891 O           23.5421     3.9581    10.7176 O             1 RES     
     892 O           37.6101    14.0981    15.1866 O             1 RES     
     893 O           27.0411    12.8441    15.1866 O             1 RES     
     894 O           25.1081     0.7751    15.1866 O             1 RES     
     895 O           39.6081    11.6511    10.7626 O             1 RES     
     896 O           29.0351    15.2931    10.7636 O             1 RES     
     897 O           23.1091    24.9751    10.7626 O             1 RES     
     898 O           26.0501    16.6021    15.1346 O             1 RES     
     899 O           36.6241    10.3401    15.1336 O             1 RES     
     900 O           36.6671     3.2791    15.1346 O             1 RES     
     901 O           39.9251     8.2841    14.9956 O             1 RES     
     902 O           29.3561    18.6611    14.9966 O             1 RES     
     903 O           22.7911    21.6061    14.9966 O             1 RES     
     904 O           35.5311    16.8671    14.7926 O             1 RES     
     905 O           24.9591    10.0731    14.7936 O             1 RES     
     906 O           27.1861     3.5441    14.7936 O             1 RES     
     907 O           36.2311     8.6281    12.9356 O             1 RES     
     908 O           25.6591    18.3141    12.9356 O             1 RES     
     909 O           26.4861    21.9511    12.9356 O             1 RES     
     910 O           35.1091    11.3091    12.9526 O             1 RES     
     911 O           24.5371    15.6321    12.9516 O             1 RES     
     912 O           27.6081    24.6321    12.9526 O             1 RES     
     913 O           25.2431    13.0571    12.9726 O             1 RES     
     914 O           35.8151    13.8851    12.9706 O             1 RES     
     915 O           37.4741    26.3811    12.9726 O             1 RES     
     916 O           34.9701    19.1781    12.8406 O             1 RES     
     917 O           24.3981     7.7631    12.8416 O             1 RES     
     918 O           27.7471     5.8551    12.8406 O             1 RES     
     919 O           32.4441    12.2551    12.9626 O             1 RES     
     920 O           21.8731    14.6871    12.9646 O             1 RES     
     921 O           30.2731    25.5781    12.9636 O             1 RES     
     922 O           30.8401    14.4531    13.0686 O             1 RES     
     923 O           41.4121    12.4901    13.0686 O             1 RES     
     924 O           31.8771     1.1291    13.0696 O             1 RES     
     925 O           32.9491    17.5571    12.9746 O             1 RES     
     926 O           22.3771     9.3841    12.9766 O             1 RES     
     927 O           29.7671     4.2341    12.9746 O             1 RES     
     928 O           26.8221     8.5571    12.8256 O             1 RES     
     929 O           37.3951    18.3851    12.8256 O             1 RES     
     930 O           35.8951    21.8801    12.8266 O             1 RES     
     931 O           29.9521    10.7641    12.9966 O             1 RES     
     932 O           40.5241    16.1781    12.9986 O             1 RES     
     933 O           32.7651    24.0871    12.9976 O             1 RES     
     934 O           30.3931    16.8151    12.9556 O             1 RES     
     935 O           40.9641    10.1281    12.9546 O             1 RES     
     936 O           32.3241     3.4911    12.9556 O             1 RES     
     937 O           30.9801    19.4421    12.8356 O             1 RES     
     938 O           41.5511     7.5001    12.8376 O             1 RES     
     939 O           31.7371     6.1191    12.8356 O             1 RES     
     940 O           28.8541    13.1901    12.8786 O             1 RES     
     941 O           39.4261    13.7521    12.8806 O             1 RES     
     942 O           33.8631    -0.1329    12.8796 O             1 RES     
     943 O           28.0161    17.0561    12.9626 O             1 RES     
     944 O           38.5881     9.8871    12.9586 O             1 RES     
     945 O           34.7011     3.7321    12.9626 O             1 RES     
     946 O           27.9941    19.6941    12.7736 O             1 RES     
     947 O           38.5651     7.2481    12.7736 O             1 RES     
     948 O           34.7231     6.3711    12.7736 O             1 RES     
     949 O           29.4661     7.9551    12.7936 O             1 RES     
     950 O           40.0391    18.9871    12.7946 O             1 RES     
     951 O           33.2511    21.2781    12.7936 O             1 RES     
     952 O           27.1791    11.0261    12.8896 O             1 RES     
     953 O           37.7511    15.9161    12.8886 O             1 RES     
     954 O           35.5381    24.3501    12.8896 O             1 RES     
     955 O           27.1221    14.8571    13.0696 O             1 RES     
     956 O           37.6941    12.0861    13.0686 O             1 RES     
     957 O           35.5961     1.5331    13.0696 O             1 RES     
     958 O           22.8471    12.1861    12.9276 O             1 RES     
     959 O           33.4191    14.7551    12.9246 O             1 RES     
     960 O           39.6581    25.6081    12.9186 O             1 RES     
     961 Mo           4.5882    46.7794    12.3636 Mo            1 RES     
     962 Nb           7.0452    52.9514    12.4276 Nb            1 RES     
     963 Mo           8.3202    32.7684    12.3936 Mo            1 RES     
     964 V            9.0942    29.2624    13.5106 V             1 RES     
     965 Nb          10.5652    52.4074    13.4736 Nb            1 RES     
     966 Mo          12.6742    49.5524    12.3876 Mo            1 RES     
     967 Mo          14.2352    52.8434    13.5106 Mo            1 RES     
     968 Nb           4.5962    50.3374    13.4566 Nb            1 RES     
     969 V           11.8602    31.9064    13.3206 V             1 RES     
     970 Mo          15.1592    33.4564    12.3636 Mo            1 RES     
     971 V            2.1302    40.6064    12.4296 V             1 RES     
     972 Te          12.7022    39.6284    12.4276 Te            1 RES     
     973 Mo          17.6172    27.2834    12.4296 Mo            1 RES     
     974 Mo           0.8532    34.1434    12.3956 Mo            1 RES     
     975 Te          11.4262    46.0924    12.3936 Te            1 RES     
     976 Mo          18.8942    47.4674    12.3956 Mo            1 RES     
     977 V            0.0802    37.6504    13.5116 V             1 RES     
     978 V           10.6532    42.5864    13.5106 V             1 RES     
     979 Mo          19.6672    50.9734    13.5126 Mo            1 RES     
     980 Mo          19.7542    41.1534    13.4736 Mo            1 RES     
     981 Mo           9.1822    39.0834    13.4726 Mo            1 RES     
     982 Mo          -0.0068    27.8294    13.4746 Mo            1 RES     
     983 Mo          17.6462    44.0074    12.3876 Mo            1 RES     
     984 Mo           7.0732    36.2294    12.3876 Mo            1 RES     
     985 Mo           2.1022    30.6844    12.3886 Mo            1 RES     
     986 Nb          16.0842    40.7174    13.5106 Nb            1 RES     
     987 Mo           5.5132    39.5194    13.5106 Mo            1 RES     
     988 Mo           3.6632    27.3934    13.5106 Mo            1 RES     
     989 Mo           4.5782    43.2224    13.4566 Mo            1 RES     
     990 Mo          15.1512    37.0134    13.4556 Mo            1 RES     
     991 Mo          15.1692    29.8994    13.4566 Mo            1 RES     
     992 Mo          18.4572    35.0074    13.3196 Mo            1 RES     
     993 Mo           7.8862    45.2304    13.3206 Mo            1 RES     
     994 Mo           1.2902    48.3304    13.3206 Mo            1 RES     
     995 Mo          12.1922    28.6184    12.4746 Mo            1 RES     
     996 Nb          18.1272    38.2964    12.4736 Nb            1 RES     
     997 Mo           7.5552    41.9414    12.4746 Mo            1 RES     
     998 Mo           1.6202    51.6193    12.4746 Mo            1 RES     
     999 Nb          16.1322    49.8474    12.9746 Nb            1 RES     
    1000 Mo          14.1872    43.7124    12.9736 Mo            1 RES     
    1001 Mo           3.6142    36.5234    12.9736 Mo            1 RES     
    1002 Mo           5.5602    30.3884    12.9736 Mo            1 RES     
    1003 Mo           4.5882    33.4564    13.4396 Mo            1 RES     
    1004 Mo          15.1602    46.7794    13.4386 Mo            1 RES     
    1005 O            4.5882    46.7794    10.6916 O             1 RES     
    1006 O            4.5882    33.4564    15.1076 O             1 RES     
    1007 O            7.0342    52.9264    10.7546 O             1 RES     
    1008 O            8.3272    32.7074    10.7226 O             1 RES     
    1009 O            9.0922    29.2534    15.1896 O             1 RES     
    1010 O           10.5912    52.4164    15.1516 O             1 RES     
    1011 O           12.6312    49.6324    10.7176 O             1 RES     
    1012 O           14.1922    52.8154    15.1876 O             1 RES     
    1013 O           12.1962    28.6174    10.7636 O             1 RES     
    1014 O            4.6082    50.3104    15.1346 O             1 RES     
    1015 O           11.8762    31.9854    14.9966 O             1 RES     
    1016 O           16.2732    50.0444    14.7946 O             1 RES     
    1017 O           15.5732    31.6384    12.9356 O             1 RES     
    1018 O           16.6952    28.9564    12.9516 O             1 RES     
    1019 O            5.4182    27.2084    12.9706 O             1 RES     
    1020 O           16.8342    47.7334    12.8416 O             1 RES     
    1021 O           19.3602    28.0114    12.9646 O             1 RES     
    1022 O           20.9642    52.4603    13.0696 O             1 RES     
    1023 O           18.8552    49.3554    12.9766 O             1 RES     
    1024 O            3.8372    31.7084    12.8266 O             1 RES     
    1025 O            0.7082    29.5024    12.9986 O             1 RES     
    1026 O            0.2682    50.0984    12.9546 O             1 RES     
    1027 O           20.8252    47.4704    12.8376 O             1 RES     
    1028 O            1.8062    27.0764    12.8806 O             1 RES     
    1029 O            2.6442    49.8574    12.9596 O             1 RES     
    1030 O            2.6672    47.2184    12.7736 O             1 RES     
    1031 O            1.1932    32.3104    12.7946 O             1 RES     
    1032 O            3.4812    29.2394    12.8896 O             1 RES     
    1033 O            3.5392    52.0564    13.0696 O             1 RES     
    1034 O            7.8132    28.0794    12.9246 O             1 RES     
    1035 O           15.1592    33.4564    10.6916 O             1 RES     
    1036 O           15.1602    46.7794    15.1076 O             1 RES     
    1037 O            2.1422    40.6304    10.7556 O             1 RES     
    1038 O           12.7142    39.6044    10.7536 O             1 RES     
    1039 O           17.6062    27.3064    10.7556 O             1 RES     
    1040 O            0.8462    34.2044    10.7246 O             1 RES     
    1041 O           11.4202    46.0314    10.7226 O             1 RES     
    1042 O           18.9012    47.5284    10.7246 O             1 RES     
    1043 O            0.0802    37.6594    15.1906 O             1 RES     
    1044 O           10.6542    42.5764    15.1896 O             1 RES     
    1045 O           19.6672    50.9824    15.1916 O             1 RES     
    1046 O           19.7282    41.1424    15.1516 O             1 RES     
    1047 O            9.1562    39.0934    15.1506 O             1 RES     
    1048 O            0.0192    27.8194    15.1516 O             1 RES     
    1049 O           17.6902    43.9294    10.7176 O             1 RES     
    1050 O            7.1162    36.3084    10.7176 O             1 RES     
    1051 O            2.0572    30.6054    10.7176 O             1 RES     
    1052 O           16.1252    40.7454    15.1866 O             1 RES     
    1053 O            5.5562    39.4914    15.1866 O             1 RES     
    1054 O            3.6232    27.4224    15.1866 O             1 RES     
    1055 O           18.1232    38.2984    10.7626 O             1 RES     
    1056 O            7.5502    41.9404    10.7636 O             1 RES     
    1057 O            1.6242    51.6224    10.7626 O             1 RES     
    1058 O            4.5652    43.2494    15.1346 O             1 RES     
    1059 O           15.1392    36.9874    15.1336 O             1 RES     
    1060 O           15.1822    29.9264    15.1346 O             1 RES     
    1061 O           18.4402    34.9314    14.9956 O             1 RES     
    1062 O            7.8712    45.3084    14.9966 O             1 RES     
    1063 O            1.3062    48.2534    14.9966 O             1 RES     
    1064 O           14.0462    43.5144    14.7926 O             1 RES     
    1065 O            3.4742    36.7204    14.7936 O             1 RES     
    1066 O            5.7012    30.1914    14.7936 O             1 RES     
    1067 O           14.7462    35.2754    12.9356 O             1 RES     
    1068 O            4.1742    44.9614    12.9356 O             1 RES     
    1069 O            5.0012    48.5984    12.9356 O             1 RES     
    1070 O           13.6242    37.9564    12.9526 O             1 RES     
    1071 O            3.0522    42.2794    12.9516 O             1 RES     
    1072 O            6.1232    51.2794    12.9526 O             1 RES     
    1073 O            3.7582    39.7044    12.9726 O             1 RES     
    1074 O           14.3302    40.5324    12.9706 O             1 RES     
    1075 O           15.9892    53.0284    12.9726 O             1 RES     
    1076 O           13.4852    45.8254    12.8406 O             1 RES     
    1077 O            2.9132    34.4104    12.8416 O             1 RES     
    1078 O            6.2622    32.5024    12.8406 O             1 RES     
    1079 O           10.9592    38.9024    12.9626 O             1 RES     
    1080 O            0.3882    41.3344    12.9646 O             1 RES     
    1081 O            8.7882    52.2254    12.9636 O             1 RES     
    1082 O            9.3552    41.1004    13.0686 O             1 RES     
    1083 O           19.9272    39.1374    13.0686 O             1 RES     
    1084 O           10.3922    27.7764    13.0696 O             1 RES     
    1085 O           11.4642    44.2044    12.9746 O             1 RES     
    1086 O            0.8922    36.0314    12.9766 O             1 RES     
    1087 O            8.2822    30.8814    12.9746 O             1 RES     
    1088 O            5.3372    35.2044    12.8256 O             1 RES     
    1089 O           15.9102    45.0324    12.8256 O             1 RES     
    1090 O           14.4102    48.5273    12.8266 O             1 RES     
    1091 O            8.4672    37.4114    12.9966 O             1 RES     
    1092 O           19.0392    42.8254    12.9986 O             1 RES     
    1093 O           11.2802    50.7343    12.9976 O             1 RES     
    1094 O            8.9082    43.4624    12.9556 O             1 RES     
    1095 O           19.4792    36.7754    12.9546 O             1 RES     
    1096 O           10.8392    30.1384    12.9556 O             1 RES     
    1097 O            9.4952    46.0894    12.8356 O             1 RES     
    1098 O           20.0662    34.1474    12.8376 O             1 RES     
    1099 O           10.2522    32.7664    12.8356 O             1 RES     
    1100 O            7.3692    39.8374    12.8786 O             1 RES     
    1101 O           17.9412    40.3994    12.8806 O             1 RES     
    1102 O           12.3782    26.5144    12.8796 O             1 RES     
    1103 O            6.5312    43.7034    12.9626 O             1 RES     
    1104 O           17.1032    36.5344    12.9586 O             1 RES     
    1105 O           13.2162    30.3794    12.9626 O             1 RES     
    1106 O            6.5092    46.3414    12.7736 O             1 RES     
    1107 O           17.0802    33.8954    12.7736 O             1 RES     
    1108 O           13.2382    33.0184    12.7736 O             1 RES     
    1109 O            7.9812    34.6024    12.7936 O             1 RES     
    1110 O           18.5542    45.6344    12.7946 O             1 RES     
    1111 O           11.7662    47.9254    12.7936 O             1 RES     
    1112 O            5.6942    37.6734    12.8896 O             1 RES     
    1113 O           16.2662    42.5634    12.8886 O             1 RES     
    1114 O           14.0532    50.9974    12.8896 O             1 RES     
    1115 O            5.6372    41.5044    13.0696 O             1 RES     
    1116 O           16.2092    38.7334    13.0686 O             1 RES     
    1117 O           14.1112    28.1804    13.0696 O             1 RES     
    1118 O            1.3622    38.8334    12.9276 O             1 RES     
    1119 O           11.9342    41.4024    12.9246 O             1 RES     
    1120 O           18.1732    52.2554    12.9186 O             1 RES     
    1121 Mo          26.0731    46.7794    12.3636 Mo            1 RES     
    1122 Mo          28.5301    52.9514    12.4276 Mo            1 RES     
    1123 Nb          29.8051    32.7684    12.3936 Nb            1 RES     
    1124 Mo          30.5791    29.2624    13.5106 Mo            1 RES     
    1125 Mo          32.0501    52.4074    13.4736 Mo            1 RES     
    1126 Nb          34.1591    49.5524    12.3876 Nb            1 RES     
    1127 Mo          35.7201    52.8434    13.5106 Mo            1 RES     
    1128 V           26.0811    50.3374    13.4566 V             1 RES     
    1129 Mo          33.3451    31.9064    13.3206 Mo            1 RES     
    1130 Mo          36.6441    33.4564    12.3636 Mo            1 RES     
    1131 Te          23.6151    40.6064    12.4296 Te            1 RES     
    1132 Mo          34.1871    39.6284    12.4276 Mo            1 RES     
    1133 Mo          39.1021    27.2834    12.4296 Mo            1 RES     
    1134 Mo          22.3381    34.1434    12.3956 Mo            1 RES     
    1135 Nb          32.9111    46.0924    12.3936 Nb            1 RES     
    1136 Nb          40.3791    47.4674    12.3956 Nb            1 RES     
    1137 Te          21.5651    37.6504    13.5116 Te            1 RES     
    1138 Te          32.1381    42.5864    13.5106 Te            1 RES     
    1139 Mo          41.1521    50.9734    13.5126 Mo            1 RES     
    1140 Mo          41.2391    41.1534    13.4736 Mo            1 RES     
    1141 V           30.6671    39.0834    13.4726 V             1 RES     
    1142 Mo          21.4781    27.8294    13.4746 Mo            1 RES     
    1143 Mo          39.1311    44.0074    12.3876 Mo            1 RES     
    1144 Mo          28.5581    36.2294    12.3876 Mo            1 RES     
    1145 Mo          23.5871    30.6844    12.3886 Mo            1 RES     
    1146 V           37.5691    40.7174    13.5106 V             1 RES     
    1147 Mo          26.9981    39.5194    13.5106 Mo            1 RES     
    1148 Mo          25.1481    27.3934    13.5106 Mo            1 RES     
    1149 Nb          26.0631    43.2224    13.4566 Nb            1 RES     
    1150 Mo          36.6361    37.0134    13.4556 Mo            1 RES     
    1151 Mo          36.6541    29.8994    13.4566 Mo            1 RES     
    1152 Mo          39.9421    35.0074    13.3196 Mo            1 RES     
    1153 Mo          29.3711    45.2304    13.3206 Mo            1 RES     
    1154 Mo          22.7751    48.3304    13.3206 Mo            1 RES     
    1155 Mo          33.6771    28.6184    12.4746 Mo            1 RES     
    1156 Mo          39.6121    38.2964    12.4736 Mo            1 RES     
    1157 Mo          29.0401    41.9414    12.4746 Mo            1 RES     
    1158 Te          23.1051    51.6193    12.4746 Te            1 RES     
    1159 Mo          37.6171    49.8474    12.9746 Mo            1 RES     
    1160 Mo          35.6721    43.7124    12.9736 Mo            1 RES     
    1161 Mo          25.0991    36.5234    12.9736 Mo            1 RES     
    1162 Mo          27.0451    30.3884    12.9736 Mo            1 RES     
    1163 Mo          26.0731    33.4564    13.4396 Mo            1 RES     
    1164 Te          36.6451    46.7794    13.4386 Te            1 RES     
    1165 O           26.0731    46.7794    10.6916 O             1 RES     
    1166 O           26.0731    33.4564    15.1076 O             1 RES     
    1167 O           28.5191    52.9264    10.7546 O             1 RES     
    1168 O           29.8121    32.7074    10.7226 O             1 RES     
    1169 O           30.5771    29.2534    15.1896 O             1 RES     
    1170 O           32.0761    52.4164    15.1516 O             1 RES     
    1171 O           34.1161    49.6324    10.7176 O             1 RES     
    1172 O           35.6771    52.8154    15.1876 O             1 RES     
    1173 O           33.6811    28.6174    10.7636 O             1 RES     
    1174 O           26.0931    50.3104    15.1346 O             1 RES     
    1175 O           33.3611    31.9854    14.9966 O             1 RES     
    1176 O           37.7581    50.0444    14.7946 O             1 RES     
    1177 O           37.0581    31.6384    12.9356 O             1 RES     
    1178 O           38.1801    28.9564    12.9516 O             1 RES     
    1179 O           26.9031    27.2084    12.9706 O             1 RES     
    1180 O           38.3191    47.7334    12.8416 O             1 RES     
    1181 O           40.8451    28.0114    12.9646 O             1 RES     
    1182 O           42.4491    52.4603    13.0696 O             1 RES     
    1183 O           40.3401    49.3554    12.9766 O             1 RES     
    1184 O           25.3221    31.7084    12.8266 O             1 RES     
    1185 O           22.1931    29.5024    12.9986 O             1 RES     
    1186 O           21.7531    50.0984    12.9546 O             1 RES     
    1187 O           42.3101    47.4704    12.8376 O             1 RES     
    1188 O           23.2911    27.0764    12.8806 O             1 RES     
    1189 O           24.1291    49.8574    12.9596 O             1 RES     
    1190 O           24.1521    47.2184    12.7736 O             1 RES     
    1191 O           22.6781    32.3104    12.7946 O             1 RES     
    1192 O           24.9661    29.2394    12.8896 O             1 RES     
    1193 O           25.0241    52.0564    13.0696 O             1 RES     
    1194 O           29.2981    28.0794    12.9246 O             1 RES     
    1195 O           36.6441    33.4564    10.6916 O             1 RES     
    1196 O           36.6451    46.7794    15.1076 O             1 RES     
    1197 O           23.6271    40.6304    10.7556 O             1 RES     
    1198 O           34.1991    39.6044    10.7536 O             1 RES     
    1199 O           39.0911    27.3064    10.7556 O             1 RES     
    1200 O           22.3311    34.2044    10.7246 O             1 RES     
    1201 O           32.9051    46.0314    10.7226 O             1 RES     
    1202 O           40.3861    47.5284    10.7246 O             1 RES     
    1203 O           21.5651    37.6594    15.1906 O             1 RES     
    1204 O           32.1391    42.5764    15.1896 O             1 RES     
    1205 O           41.1521    50.9824    15.1916 O             1 RES     
    1206 O           41.2131    41.1424    15.1516 O             1 RES     
    1207 O           30.6411    39.0934    15.1506 O             1 RES     
    1208 O           21.5041    27.8194    15.1516 O             1 RES     
    1209 O           39.1751    43.9294    10.7176 O             1 RES     
    1210 O           28.6011    36.3084    10.7176 O             1 RES     
    1211 O           23.5421    30.6054    10.7176 O             1 RES     
    1212 O           37.6101    40.7454    15.1866 O             1 RES     
    1213 O           27.0411    39.4914    15.1866 O             1 RES     
    1214 O           25.1081    27.4224    15.1866 O             1 RES     
    1215 O           39.6081    38.2984    10.7626 O             1 RES     
    1216 O           29.0351    41.9404    10.7636 O             1 RES     
    1217 O           23.1091    51.6224    10.7626 O             1 RES     
    1218 O           26.0501    43.2494    15.1346 O             1 RES     
    1219 O           36.6241    36.9874    15.1336 O             1 RES     
    1220 O           36.6671    29.9264    15.1346 O             1 RES     
    1221 O           39.9251    34.9314    14.9956 O             1 RES     
    1222 O           29.3561    45.3084    14.9966 O             1 RES     
    1223 O           22.7911    48.2534    14.9966 O             1 RES     
    1224 O           35.5311    43.5144    14.7926 O             1 RES     
    1225 O           24.9591    36.7204    14.7936 O             1 RES     
    1226 O           27.1861    30.1914    14.7936 O             1 RES     
    1227 O           36.2311    35.2754    12.9356 O             1 RES     
    1228 O           25.6591    44.9614    12.9356 O             1 RES     
    1229 O           26.4861    48.5984    12.9356 O             1 RES     
    1230 O           35.1091    37.9564    12.9526 O             1 RES     
    1231 O           24.5371    42.2794    12.9516 O             1 RES     
    1232 O           27.6081    51.2794    12.9526 O             1 RES     
    1233 O           25.2431    39.7044    12.9726 O             1 RES     
    1234 O           35.8151    40.5324    12.9706 O             1 RES     
    1235 O           37.4741    53.0284    12.9726 O             1 RES     
    1236 O           34.9701    45.8254    12.8406 O             1 RES     
    1237 O           24.3981    34.4104    12.8416 O             1 RES     
    1238 O           27.7471    32.5024    12.8406 O             1 RES     
    1239 O           32.4441    38.9024    12.9626 O             1 RES     
    1240 O           21.8731    41.3344    12.9646 O             1 RES     
    1241 O           30.2731    52.2254    12.9636 O             1 RES     
    1242 O           30.8401    41.1004    13.0686 O             1 RES     
    1243 O           41.4121    39.1374    13.0686 O             1 RES     
    1244 O           31.8771    27.7764    13.0696 O             1 RES     
    1245 O           32.9491    44.2044    12.9746 O             1 RES     
    1246 O           22.3771    36.0314    12.9766 O             1 RES     
    1247 O           29.7671    30.8814    12.9746 O             1 RES     
    1248 O           26.8221    35.2044    12.8256 O             1 RES     
    1249 O           37.3951    45.0324    12.8256 O             1 RES     
    1250 O           35.8951    48.5273    12.8266 O             1 RES     
    1251 O           29.9521    37.4114    12.9966 O             1 RES     
    1252 O           40.5241    42.8254    12.9986 O             1 RES     
    1253 O           32.7651    50.7343    12.9976 O             1 RES     
    1254 O           30.3931    43.4624    12.9556 O             1 RES     
    1255 O           40.9641    36.7754    12.9546 O             1 RES     
    1256 O           32.3241    30.1384    12.9556 O             1 RES     
    1257 O           30.9801    46.0894    12.8356 O             1 RES     
    1258 O           41.5511    34.1474    12.8376 O             1 RES     
    1259 O           31.7371    32.7664    12.8356 O             1 RES     
    1260 O           28.8541    39.8374    12.8786 O             1 RES     
    1261 O           39.4261    40.3994    12.8806 O             1 RES     
    1262 O           33.8631    26.5144    12.8796 O             1 RES     
    1263 O           28.0161    43.7034    12.9626 O             1 RES     
    1264 O           38.5881    36.5344    12.9586 O             1 RES     
    1265 O           34.7011    30.3794    12.9626 O             1 RES     
    1266 O           27.9941    46.3414    12.7736 O             1 RES     
    1267 O           38.5651    33.8954    12.7736 O             1 RES     
    1268 O           34.7231    33.0184    12.7736 O             1 RES     
    1269 O           29.4661    34.6024    12.7936 O             1 RES     
    1270 O           40.0391    45.6344    12.7946 O             1 RES     
    1271 O           33.2511    47.9254    12.7936 O             1 RES     
    1272 O           27.1791    37.6734    12.8896 O             1 RES     
    1273 O           37.7511    42.5634    12.8886 O             1 RES     
    1274 O           35.5381    50.9974    12.8896 O             1 RES     
    1275 O           27.1221    41.5044    13.0696 O             1 RES     
    1276 O           37.6941    38.7334    13.0686 O             1 RES     
    1277 O           35.5961    28.1804    13.0696 O             1 RES     
    1278 O           22.8471    38.8334    12.9276 O             1 RES     
    1279 O           33.4191    41.4024    12.9246 O             1 RES     
    1280 O           39.6581    52.2554    12.9186 O             1 RES     
    1281 C            6.9481    40.5346    19.7123 C             1 RES     
    1282 C            8.4591    40.5565    19.7667 C             1 RES     
    1283 H            6.5341    40.1938    20.6659 H             1 RES     
    1284 H            6.6017    39.8586    18.9249 H             1 RES     
    1285 H            6.5566    41.5349    19.5046 H             1 RES     
    1286 H            8.8506    39.5562    19.9745 H             1 RES     
    1287 H            8.8055    41.2325    20.5541 H             1 RES     
    1288 H            8.8731    40.8973    18.8131 H             1 RES     
    1289 C           40.6494    18.5011    19.9146 C             1 RES     
    1290 C           40.8853    17.9692    21.3102 C             1 RES     
    1291 H           39.8112    19.2042    19.9078 H             1 RES     
    1292 H           40.4186    17.6832    19.2255 H             1 RES     
    1293 H           41.5386    19.0214    19.5462 H             1 RES     
    1294 H           39.9961    17.4489    21.6786 H             1 RES     
    1295 H           41.1161    18.7871    21.9993 H             1 RES     
    1296 H           41.7235    17.2660    21.3170 H             1 RES     
    1297 C           11.5360    27.8240    21.8578 C             1 RES     
    1298 C           10.3051    26.9890    21.5858 C             1 RES     
    1299 H           12.0100    28.1268    20.9194 H             1 RES     
    1300 H           12.2643    27.2554    22.4438 H             1 RES     
    1301 H           11.2724    28.7263    22.4175 H             1 RES     
    1302 H           10.5688    26.0867    21.0261 H             1 RES     
    1303 H            9.5769    27.5575    20.9998 H             1 RES     
    1304 H            9.8311    26.6862    22.5242 H             1 RES     
    1305 C           33.1607    43.8818    19.0518 C             1 RES     
    1306 C           33.1343    42.4863    19.6334 C             1 RES     
    1307 H           32.1796    44.1482    18.6474 H             1 RES     
    1308 H           33.8957    43.9477    18.2441 H             1 RES     
    1309 H           33.4268    44.6135    19.8204 H             1 RES     
    1310 H           32.8682    41.7546    18.8648 H             1 RES     
    1311 H           32.3993    42.4204    20.4411 H             1 RES     
    1312 H           34.1154    42.2199    20.0378 H             1 RES     
    1313 C           29.2513    26.3583    20.3585 C             1 RES     
    1314 C           29.4610    26.9486    18.9823 C             1 RES     
    1315 H           28.7250    25.4017    20.2902 H             1 RES     
    1316 H           28.6574    27.0348    20.9804 H             1 RES     
    1317 H           30.2118    26.1886    20.8542 H             1 RES     
    1318 H           28.5006    27.1184    18.4865 H             1 RES     
    1319 H           30.0549    26.2721    18.3604 H             1 RES     
    1320 H           29.9874    27.9053    19.0505 H             1 RES     
    1321 C           10.3824    35.6857    21.4530 C             1 RES     
    1322 C           10.3261    35.1947    20.0240 C             1 RES     
    1323 H            9.4534    36.1982    21.7202 H             1 RES     
    1324 H           11.2127    36.3856    21.5865 H             1 RES     
    1325 H           10.5241    34.8477    22.1420 H             1 RES     
    1326 H           10.1845    36.0327    19.3350 H             1 RES     
    1327 H            9.4959    34.4948    19.8906 H             1 RES     
    1328 H           11.2551    34.6823    19.7569 H             1 RES     
    1329 C           14.3505     1.6282    19.2324 C             1 RES     
    1330 C           14.7172     1.4713    20.6909 C             1 RES     
    1331 H           15.2317     1.4936    18.5979 H             1 RES     
    1332 H           13.9396     2.6246    19.0444 H             1 RES     
    1333 H           13.6007     0.8860    18.9426 H             1 RES     
    1334 H           15.4670     2.2135    20.9806 H             1 RES     
    1335 H           15.1281     0.4749    20.8788 H             1 RES     
    1336 H           13.8361     1.6059    21.3253 H             1 RES     
    1337 C           24.8030     1.6290    20.1358 C             1 RES     
    1338 C           24.6963     1.7193    21.6413 C             1 RES     
    1339 H           23.8489     1.3167    19.7009 H             1 RES     
    1340 H           25.5676     0.9014    19.8476 H             1 RES     
    1341 H           25.0739     2.6001    19.7108 H             1 RES     
    1342 H           24.4254     0.7482    22.0663 H             1 RES     
    1343 H           23.9317     2.4469    21.9295 H             1 RES     
    1344 H           25.6504     2.0317    22.0762 H             1 RES     
    1345 C           28.0367    41.1770    21.0684 C             1 RES     
    1346 C           28.4611    40.9596    19.6335 C             1 RES     
    1347 H           27.8027    40.2223    21.5488 H             1 RES     
    1348 H           27.1475    41.8128    21.1140 H             1 RES     
    1349 H           28.8363    41.6617    21.6365 H             1 RES     
    1350 H           27.6615    40.4750    19.0654 H             1 RES     
    1351 H           29.3503    40.3239    19.5878 H             1 RES     
    1352 H           28.6952    41.9144    19.1531 H             1 RES     
    1353 C           19.2785    41.5656    21.2588 C             1 RES     
    1354 C           19.0198    40.4329    22.2265 C             1 RES     
    1355 H           18.5704    41.5286    20.4257 H             1 RES     
    1356 H           20.2923    41.5000    20.8525 H             1 RES     
    1357 H           19.1702    42.5319    21.7604 H             1 RES     
    1358 H           19.1281    39.4666    21.7249 H             1 RES     
    1359 H           18.0061    40.4985    22.6328 H             1 RES     
    1360 H           19.7280    40.4699    23.0596 H             1 RES     
    1361 C           32.0984    51.5539    21.0743 C             1 RES     
    1362 C           31.7434    51.5998    19.6053 C             1 RES     
    1363 H           32.4901    50.5687    21.3444 H             1 RES     
    1364 H           31.2160    51.7543    21.6894 H             1 RES     
    1365 H           32.8597    52.3037    21.3093 H             1 RES     
    1366 H           30.9820    50.8501    19.3703 H             1 RES     
    1367 H           32.6257    51.3994    18.9902 H             1 RES     
    1368 H           31.3516    52.5850    19.3352 H             1 RES     
    1369 C            7.8750     1.6538    21.7925 C             1 RES     
    1370 C            7.4379     1.7425    20.3477 C             1 RES     
    1371 H            8.8156     1.1013    21.8761 H             1 RES     
    1372 H            7.1185     1.1387    22.3920 H             1 RES     
    1373 H            8.0242     2.6535    22.2110 H             1 RES     
    1374 H            7.2886     0.7427    19.9292 H             1 RES     
    1375 H            8.1944     2.2576    19.7483 H             1 RES     
    1376 H            6.4972     2.2950    20.2641 H             1 RES     
    1377 C           41.3720    30.1068    20.4677 C             1 RES     
    1378 C           40.9315    29.9070    21.9003 C             1 RES     
    1379 H           41.0878    31.1021    20.1135 H             1 RES     
    1380 H           40.9059    29.3627    19.8150 H             1 RES     
    1381 H           42.4582    30.0078    20.3823 H             1 RES     
    1382 H           39.8452    30.0059    21.9858 H             1 RES     
    1383 H           41.3976    30.6511    22.5531 H             1 RES     
    1384 H           41.2157    28.9116    22.2546 H             1 RES     
    1385 C           12.1743    47.9278    20.8141 C             1 RES     
    1386 C           12.1101    48.8431    22.0159 C             1 RES     
    1387 H           13.1245    48.0526    20.2863 H             1 RES     
    1388 H           11.3611    48.1511    20.1171 H             1 RES     
    1389 H           12.0863    46.8818    21.1226 H             1 RES     
    1390 H           12.1982    49.8891    21.7075 H             1 RES     
    1391 H           12.9233    48.6198    22.7130 H             1 RES     
    1392 H           11.1599    48.7183    22.5437 H             1 RES     
    1393 C           26.3645    51.9164    22.0217 C             1 RES     
    1394 C           26.7489    50.4919    21.6912 C             1 RES     
    1395 H           26.2468    52.5048    21.1068 H             1 RES     
    1396 H           27.1346    52.3890    22.6386 H             1 RES     
    1397 H           25.4190    51.9417    22.5716 H             1 RES     
    1398 H           27.6943    50.4666    21.1413 H             1 RES     
    1399 H           25.9787    50.0193    21.0743 H             1 RES     
    1400 H           26.8666    49.9035    22.6061 H             1 RES     
    1401 C           30.2580    46.9271    21.8225 C             1 RES     
    1402 C           29.0269    46.1085    21.5052 C             1 RES     
    1403 H           30.6624    47.3815    20.9131 H             1 RES     
    1404 H           31.0341    46.2973    22.2675 H             1 RES     
    1405 H           30.0162    47.7268    22.5290 H             1 RES     
    1406 H           29.2688    45.3089    20.7987 H             1 RES     
    1407 H           28.2508    46.7384    21.0602 H             1 RES     
    1408 H           28.6226    45.6542    22.4146 H             1 RES     
    1409 C           28.7590    20.9714    19.2705 C             1 RES     
    1410 C           28.3391    20.8391    20.7170 C             1 RES     
    1411 H           29.2696    20.0642    18.9339 H             1 RES     
    1412 H           29.4410    21.8176    19.1442 H             1 RES     
    1413 H           27.8867    21.1335    18.6303 H             1 RES     
    1414 H           29.2114    20.6770    21.3571 H             1 RES     
    1415 H           27.6571    19.9929    20.8433 H             1 RES     
    1416 H           27.8285    21.7463    21.0535 H             1 RES     
    1417 C           34.9166    18.0672    19.1915 C             1 RES     
    1418 C           36.0290    17.0432    19.2071 C             1 RES     
    1419 H           35.3246    19.0791    19.2727 H             1 RES     
    1420 H           34.2319    17.9036    20.0290 H             1 RES     
    1421 H           34.3451    17.9997    18.2610 H             1 RES     
    1422 H           36.6005    17.1107    20.1376 H             1 RES     
    1423 H           36.7137    17.2068    18.3696 H             1 RES     
    1424 H           35.6210    16.0313    19.1260 H             1 RES     
    1425 C           36.3696    32.1170    19.3743 C             1 RES     
    1426 C           35.8265    33.4675    19.7839 C             1 RES     
    1427 H           35.6901    31.3186    19.6871 H             1 RES     
    1428 H           37.3456    31.9393    19.8358 H             1 RES     
    1429 H           36.4873    32.0635    18.2879 H             1 RES     
    1430 H           35.7089    33.5210    20.8703 H             1 RES     
    1431 H           34.8506    33.6452    19.3224 H             1 RES     
    1432 H           36.5061    34.2659    19.4712 H             1 RES     
    1433 C           16.2427    51.9296    21.3747 C             1 RES     
    1434 C           15.7078    52.0864    19.9692 C             1 RES     
    1435 H           15.4209    51.8753    22.0949 H             1 RES     
    1436 H           16.8786    52.7792    21.6409 H             1 RES     
    1437 H           16.8366    51.0147    21.4601 H             1 RES     
    1438 H           15.1139    53.0013    19.8838 H             1 RES     
    1439 H           15.0719    51.2368    19.7030 H             1 RES     
    1440 H           16.5296    52.1406    19.2490 H             1 RES     
    1441 C           23.5549    38.8118    19.1416 C             1 RES     
    1442 C           22.3585    37.9118    19.3536 C             1 RES     
    1443 H           23.7015    39.0118    18.0760 H             1 RES     
    1444 H           24.4628    38.3426    19.5321 H             1 RES     
    1445 H           23.4128    39.7674    19.6551 H             1 RES     
    1446 H           22.5007    36.9562    18.8401 H             1 RES     
    1447 H           21.4506    38.3811    18.9630 H             1 RES     
    1448 H           22.2120    37.7119    20.4192 H             1 RES     
    1449 C           18.5465    26.6044    21.8247 C             1 RES     
    1450 C           19.0911    27.9987    21.6114 C             1 RES     
    1451 H           18.9546    26.1685    22.7415 H             1 RES     
    1452 H           18.8139    25.9549    20.9857 H             1 RES     
    1453 H           17.4560    26.6265    21.9094 H             1 RES     
    1454 H           20.1816    27.9766    21.5267 H             1 RES     
    1455 H           18.8238    28.6482    22.4503 H             1 RES     
    1456 H           18.6831    28.4346    20.6946 H             1 RES     
    1457 C           27.5998    35.8980    21.5272 C             1 RES     
    1458 C           26.7240    34.6951    21.2580 C             1 RES     
    1459 H           27.1932    36.4928    22.3506 H             1 RES     
    1460 H           27.6614    36.5348    20.6397 H             1 RES     
    1461 H           28.6125    35.5835    21.7966 H             1 RES     
    1462 H           25.7113    35.0096    20.9886 H             1 RES     
    1463 H           26.6624    34.0583    22.1455 H             1 RES     
    1464 H           27.1305    34.1003    20.4347 H             1 RES     
    1465 C           37.5811    40.7079    22.2104 C             1 RES     
    1466 C           38.5156    41.8127    21.7714 C             1 RES     
    1467 H           38.0527    40.0885    22.9792 H             1 RES     
    1468 H           37.3197    40.0665    21.3636 H             1 RES     
    1469 H           36.6584    41.1265    22.6233 H             1 RES     
    1470 H           39.4383    41.3941    21.3585 H             1 RES     
    1471 H           38.7769    42.4541    22.6183 H             1 RES     
    1472 H           38.0440    42.4321    21.0027 H             1 RES     
    1473 C            6.8215    30.7269    19.3288 C             1 RES     
    1474 C            6.9341    30.8421    20.8322 C             1 RES     
    1475 H            7.4264    29.8928    18.9609 H             1 RES     
    1476 H            7.1701    31.6447    18.8458 H             1 RES     
    1477 H            5.7822    30.5555    19.0332 H             1 RES     
    1478 H            7.9735    31.0136    21.1278 H             1 RES     
    1479 H            6.5855    29.9244    21.3152 H             1 RES     
    1480 H            6.3293    31.6762    21.2001 H             1 RES     
    1481 C            9.3975    21.0522    20.3540 C             1 RES     
    1482 C            9.4330    20.9790    21.8639 C             1 RES     
    1483 H            8.4426    20.6777    19.9734 H             1 RES     
    1484 H           10.2012    20.4493    19.9210 H             1 RES     
    1485 H            9.5216    22.0854    20.0163 H             1 RES     
    1486 H            9.3089    19.9457    22.2015 H             1 RES     
    1487 H            8.6293    21.5818    22.2969 H             1 RES     
    1488 H           10.3880    21.3535    22.2444 H             1 RES     
    1489 C           23.0656    19.9184    21.9203 C             1 RES     
    1490 C           22.9053    18.8984    23.0249 C             1 RES     
    1491 H           24.0055    20.4662    22.0365 H             1 RES     
    1492 H           22.2423    20.6387    21.9399 H             1 RES     
    1493 H           23.0712    19.4281    20.9423 H             1 RES     
    1494 H           22.8996    19.3887    24.0029 H             1 RES     
    1495 H           23.7286    18.1781    23.0054 H             1 RES     
    1496 H           21.9654    18.3505    22.9087 H             1 RES     
    1497 C           21.7540    12.5646    21.5319 C             1 RES     
    1498 C           21.7835    12.4168    20.0274 C             1 RES     
    1499 H           20.7508    12.8387    21.8715 H             1 RES     
    1500 H           22.4519    13.3426    21.8554 H             1 RES     
    1501 H           22.0370    11.6251    22.0159 H             1 RES     
    1502 H           21.5006    13.3563    19.5433 H             1 RES     
    1503 H           21.0856    11.6387    19.7039 H             1 RES     
    1504 H           22.7867    12.1426    19.6877 H             1 RES     
    1505 C            6.0170    16.8446    21.7199 C             1 RES     
    1506 C            5.2394    18.1413    21.7281 C             1 RES     
    1507 H            5.6131    16.1590    20.9691 H             1 RES     
    1508 H            5.9610    16.3567    22.6976 H             1 RES     
    1509 H            7.0699    17.0293    21.4869 H             1 RES     
    1510 H            4.1866    17.9566    21.9612 H             1 RES     
    1511 H            5.2955    18.6292    20.7504 H             1 RES     
    1512 H            5.6434    18.8270    22.4789 H             1 RES     
    1513 C           27.9497    10.3716    21.4027 C             1 RES     
    1514 C           29.1171    10.6115    20.4722 C             1 RES     
    1515 H           27.8910    11.1616    22.1573 H             1 RES     
    1516 H           28.0588     9.4118    21.9166 H             1 RES     
    1517 H           27.0092    10.3582    20.8439 H             1 RES     
    1518 H           30.0576    10.6249    21.0310 H             1 RES     
    1519 H           29.0080    11.5713    19.9584 H             1 RES     
    1520 H           29.1758     9.8215    19.7176 H             1 RES     
    1521 C           22.8433    44.6576    19.7229 C             1 RES     
    1522 C           23.9835    45.6495    19.6738 C             1 RES     
    1523 H           22.1582    44.8179    18.8851 H             1 RES     
    1524 H           22.2797    44.7657    20.6544 H             1 RES     
    1525 H           23.2227    43.6330    19.6666 H             1 RES     
    1526 H           23.6041    46.6742    19.7300 H             1 RES     
    1527 H           24.5471    45.5415    18.7423 H             1 RES     
    1528 H           24.6686    45.4893    20.5116 H             1 RES     
    1529 C           13.6113    17.9531    21.9632 C             1 RES     
    1530 C           12.7575    16.8154    21.4503 C             1 RES     
    1531 H           13.6805    18.7490    21.2157 H             1 RES     
    1532 H           14.6231    17.6030    22.1884 H             1 RES     
    1533 H           13.1814    18.3747    22.8767 H             1 RES     
    1534 H           13.1875    16.3938    20.5368 H             1 RES     
    1535 H           11.7457    17.1655    21.2251 H             1 RES     
    1536 H           12.6884    16.0195    22.1977 H             1 RES     
    1537 C           40.7866    11.9166    19.6345 C             1 RES     
    1538 C           41.1154    13.3816    19.8139 C             1 RES     
    1539 H           39.9906    11.7892    18.8947 H             1 RES     
    1540 H           40.4516    11.4794    20.5798 H             1 RES     
    1541 H           41.6668    11.3643    19.2921 H             1 RES     
    1542 H           40.2352    13.9339    20.1562 H             1 RES     
    1543 H           41.4504    13.8188    18.8686 H             1 RES     
    1544 H           41.9114    13.5090    20.5536 H             1 RES     
    1545 C            1.5377    31.9590    20.5442 C             1 RES     
    1546 C            1.7745    32.5228    21.9270 C             1 RES     
    1547 H            1.6783    32.7333    19.7841 H             1 RES     
    1548 H            0.5183    31.5713    20.4566 H             1 RES     
    1549 H            2.2358    31.1423    20.3374 H             1 RES     
    1550 H            1.0764    33.3394    22.1339 H             1 RES     
    1551 H            2.7939    32.9105    22.0146 H             1 RES     
    1552 H            1.6339    31.7485    22.6871 H             1 RES     
    1553 C            1.6651    14.5930    19.5160 C             1 RES     
    1554 C            1.7060    13.8171    20.8132 C             1 RES     
    1555 H            1.0276    14.0865    18.7852 H             1 RES     
    1556 H            2.6693    14.6855    19.0917 H             1 RES     
    1557 H            1.2672    15.5985    19.6821 H             1 RES     
    1558 H            2.1039    12.8115    20.6471 H             1 RES     
    1559 H            0.7018    13.7245    21.2375 H             1 RES     
    1560 H            2.3435    14.3236    21.5440 H             1 RES     
    1561 C           17.3918    14.9311    19.4315 C             1 RES     
    1562 C           16.6724    13.6478    19.7804 C             1 RES     
    1563 H           17.9834    15.2834    20.2818 H             1 RES     
    1564 H           16.6750    15.7128    19.1631 H             1 RES     
    1565 H           18.0657    14.7757    18.5837 H             1 RES     
    1566 H           15.9986    13.8032    20.6282 H             1 RES     
    1567 H           17.3893    12.8661    20.0489 H             1 RES     
    1568 H           16.0809    13.2954    18.9301 H             1 RES     
    1569 C           40.8922    36.1014    19.2939 C             1 RES     
    1570 C           39.9646    37.0630    20.0019 C             1 RES     
    1571 H           40.3195    35.3313    18.7686 H             1 RES     
    1572 H           41.5552    35.6086    20.0113 H             1 RES     
    1573 H           41.5093    36.6312    18.5621 H             1 RES     
    1574 H           39.3475    36.5333    20.7337 H             1 RES     
    1575 H           39.3016    37.5559    19.2845 H             1 RES     
    1576 H           40.5373    37.8331    20.5271 H             1 RES     
    1577 C           41.1435     1.9396    21.0329 C             1 RES     
    1578 C           39.6958     1.7648    21.4328 C             1 RES     
    1579 H           41.5156     1.0402    20.5334 H             1 RES     
    1580 H           41.7655     2.1270    21.9133 H             1 RES     
    1581 H           41.2534     2.7850    20.3472 H             1 RES     
    1582 H           39.5859     0.9194    22.1185 H             1 RES     
    1583 H           39.0739     1.5774    20.5524 H             1 RES     
    1584 H           39.3238     2.6643    21.9323 H             1 RES     
    1585 C            1.3959    46.5673    20.9297 C             1 RES     
    1586 C            1.7100    46.3577    19.4656 C             1 RES     
    1587 H            0.7247    47.4213    21.0604 H             1 RES     
    1588 H            2.3123    46.7595    21.4957 H             1 RES     
    1589 H            0.9112    45.6808    21.3495 H             1 RES     
    1590 H            2.1947    47.2442    19.0458 H             1 RES     
    1591 H            0.7937    46.1655    18.8996 H             1 RES     
    1592 H            2.3812    45.5036    19.3350 H             1 RES     
    1593 C           18.8408    20.2197    18.9757 C             1 RES     
    1594 C           18.3627    19.8348    20.3576 C             1 RES     
    1595 H           18.3003    21.0991    18.6132 H             1 RES     
    1596 H           18.6772    19.3997    18.2702 H             1 RES     
    1597 H           19.9095    20.4537    18.9901 H             1 RES     
    1598 H           17.2941    19.6007    20.3432 H             1 RES     
    1599 H           18.5264    20.6548    21.0631 H             1 RES     
    1600 H           18.9032    18.9553    20.7202 H             1 RES     
    1601 C            6.4732    11.6858    20.3691 C             1 RES     
    1602 C            6.7682    11.9588    21.8268 C             1 RES     
    1603 H            6.4006    12.6232    19.8097 H             1 RES     
    1604 H            5.5270    11.1470    20.2629 H             1 RES     
    1605 H            7.2672    11.0792    19.9234 H             1 RES     
    1606 H            5.9743    12.5655    22.2725 H             1 RES     
    1607 H            7.7145    12.4976    21.9331 H             1 RES     
    1608 H            6.8409    11.0214    22.3863 H             1 RES     
    1609 C            6.0723    25.1325    20.5391 C             1 RES     
    1610 C            5.8581    24.4463    19.2089 C             1 RES     
    1611 H            6.1152    26.2180    20.4091 H             1 RES     
    1612 H            7.0106    24.8028    20.9950 H             1 RES     
    1613 H            5.2543    24.9001    21.2276 H             1 RES     
    1614 H            6.6760    24.6788    18.5204 H             1 RES     
    1615 H            4.9198    24.7761    18.7530 H             1 RES     
    1616 H            5.8152    23.3609    19.3389 H             1 RES     
    1617 C            6.2676    45.7411    21.3867 C             1 RES     
    1618 C            7.7353    45.3781    21.3689 C             1 RES     
    1619 H            6.0501    46.4995    20.6288 H             1 RES     
    1620 H            5.9821    46.1396    22.3648 H             1 RES     
    1621 H            5.6515    44.8609    21.1801 H             1 RES     
    1622 H            8.3515    46.2583    21.5755 H             1 RES     
    1623 H            8.0208    44.9795    20.3908 H             1 RES     
    1624 H            7.9529    44.6197    22.1269 H             1 RES     
    1625 C            1.7163    40.1692    21.9573 C             1 RES     
    1626 C            2.1060    41.3910    21.1562 C             1 RES     
    1627 H            1.1503    39.4676    21.3373 H             1 RES     
    1628 H            1.0949    40.4523    22.8122 H             1 RES     
    1629 H            2.6064    39.6561    22.3333 H             1 RES     
    1630 H            1.2158    41.9040    20.7803 H             1 RES     
    1631 H            2.7273    41.1079    20.3014 H             1 RES     
    1632 H            2.6720    42.0926    21.7762 H             1 RES     
    1633 C           18.2473     8.8439    21.6822 C             1 RES     
    1634 C           16.7601     8.6416    21.8654 C             1 RES     
    1635 H           18.4884     8.9861    20.6245 H             1 RES     
    1636 H           18.8014     7.9744    22.0480 H             1 RES     
    1637 H           18.5861     9.7256    22.2344 H             1 RES     
    1638 H           16.4213     7.7599    21.3132 H             1 RES     
    1639 H           16.2060     9.5111    21.4996 H             1 RES     
    1640 H           16.5190     8.4993    22.9230 H             1 RES     
    1641 C            8.3390    51.6752    19.5320 C             1 RES     
    1642 C            7.6728    50.3346    19.7449 C             1 RES     
    1643 H            9.4208    51.5934    19.6735 H             1 RES     
    1644 H            7.9535    52.4130    20.2418 H             1 RES     
    1645 H            8.1508    52.0412    18.5183 H             1 RES     
    1646 H            7.8610    49.9686    20.7586 H             1 RES     
    1647 H            8.0583    49.5968    19.0351 H             1 RES     
    1648 H            6.5910    50.4164    19.6034 H             1 RES     
    1649 C            6.3140     6.8169    20.8193 C             1 RES     
    1650 C            6.7816     6.4951    19.4178 C             1 RES     
    1651 H            5.3670     7.3640    20.7924 H             1 RES     
    1652 H            7.0535     7.4333    21.3391 H             1 RES     
    1653 H            6.1651     5.8985    21.3950 H             1 RES     
    1654 H            6.9305     7.4135    18.8420 H             1 RES     
    1655 H            6.0421     5.8787    18.8980 H             1 RES     
    1656 H            7.7286     5.9480    19.4447 H             1 RES     
    1657 C           30.5819    16.3451    21.6511 C             1 RES     
    1658 C           29.7929    15.4981    22.6239 C             1 RES     
    1659 H           31.1945    17.0761    22.1872 H             1 RES     
    1660 H           29.9090    16.8861    20.9791 H             1 RES     
    1661 H           31.2437    15.7190    21.0454 H             1 RES     
    1662 H           29.1311    16.1242    23.2297 H             1 RES     
    1663 H           30.4658    14.9571    23.2959 H             1 RES     
    1664 H           29.1803    14.7671    22.0879 H             1 RES     
    1665 C            2.3759     3.5671    20.0862 C             1 RES     
    1666 C            1.7143     2.2127    20.2050 C             1 RES     
    1667 H            3.0058     3.6100    19.1927 H             1 RES     
    1668 H            3.0034     3.7663    20.9600 H             1 RES     
    1669 H            1.6230     4.3577    20.0152 H             1 RES     
    1670 H            2.4672     1.4221    20.2760 H             1 RES     
    1671 H            1.0868     2.0135    19.3312 H             1 RES     
    1672 H            1.0843     2.1698    21.0985 H             1 RES     
    1673 C           34.5638     1.1598    22.0571 C             1 RES     
    1674 C           34.5366     2.5432    21.4473 C             1 RES     
    1675 H           35.1216     1.1656    22.9983 H             1 RES     
    1676 H           35.0431     0.4493    21.3770 H             1 RES     
    1677 H           33.5476     0.8096    22.2610 H             1 RES     
    1678 H           35.5529     2.8933    21.2433 H             1 RES     
    1679 H           34.0574     3.2536    22.1274 H             1 RES     
    1680 H           33.9788     2.5373    20.5061 H             1 RES     
    1681 C           11.8568    11.1262    19.8221 C             1 RES     
    1682 C           11.4195    12.5121    19.4046 C             1 RES     
    1683 H           11.0264    10.5841    20.2844 H             1 RES     
    1684 H           12.6760    11.1832    20.5451 H             1 RES     
    1685 H           12.2014    10.5545    18.9553 H             1 RES     
    1686 H           11.0748    13.0837    20.2715 H             1 RES     
    1687 H           10.6003    12.4551    18.6817 H             1 RES     
    1688 H           12.2498    13.0541    18.9424 H             1 RES     
    1689 C           28.7590     4.9150    20.2970 C             1 RES     
    1690 C           29.5271     3.6137    20.3533 C             1 RES     
    1691 H           27.8882     4.8760    20.9582 H             1 RES     
    1692 H           28.4101     5.1116    19.2789 H             1 RES     
    1693 H           29.3931     5.7494    20.6112 H             1 RES     
    1694 H           28.8931     2.7793    20.0391 H             1 RES     
    1695 H           29.8761     3.4171    21.3714 H             1 RES     
    1696 H           30.3980     3.6527    19.6921 H             1 RES     
    1697 C           39.8965    51.6836    20.5637 C             1 RES     
    1698 C           41.1324    51.3816    21.3808 C             1 RES     
    1699 H           39.7007    50.8773    19.8507 H             1 RES     
    1700 H           40.0238    52.6150    20.0041 H             1 RES     
    1701 H           39.0225    51.7888    21.2134 H             1 RES     
    1702 H           42.0064    51.2765    20.7311 H             1 RES     
    1703 H           41.0050    50.4502    21.9404 H             1 RES     
    1704 H           41.3282    52.1880    22.0938 H             1 RES     
    1705 C           36.6543    47.2494    21.3352 C             1 RES     
    1706 C           36.1467    48.3419    20.4214 C             1 RES     
    1707 H           35.9946    47.1347    22.2004 H             1 RES     
    1708 H           37.6590    47.4872    21.6972 H             1 RES     
    1709 H           36.6964    46.2934    20.8049 H             1 RES     
    1710 H           36.1046    49.2979    20.9517 H             1 RES     
    1711 H           35.1420    48.1042    20.0594 H             1 RES     
    1712 H           36.8064    48.4566    19.5562 H             1 RES     
    1713 C           33.0828    23.2377    22.3052 C             1 RES     
    1714 C           33.5822    21.8213    22.1303 C             1 RES     
    1715 H           33.1559    23.7900    21.3636 H             1 RES     
    1716 H           33.6751    23.7636    23.0599 H             1 RES     
    1717 H           32.0367    23.2396    22.6254 H             1 RES     
    1718 H           34.6284    21.8194    21.8101 H             1 RES     
    1719 H           32.9900    21.2954    21.3756 H             1 RES     
    1720 H           33.5091    21.2690    23.0719 H             1 RES     
    1721 C           40.3553    23.0996    21.2487 C             1 RES     
    1722 C           40.7396    24.4074    21.9031 C             1 RES     
    1723 H           41.2386    22.6007    20.8390 H             1 RES     
    1724 H           39.6473    23.2717    20.4325 H             1 RES     
    1725 H           39.8870    22.4291    21.9754 H             1 RES     
    1726 H           41.2079    25.0778    21.1763 H             1 RES     
    1727 H           41.4476    24.2353    22.7193 H             1 RES     
    1728 H           39.8562    24.9063    22.3128 H             1 RES     
    1729 C           18.8936     4.3358    19.3970 C             1 RES     
    1730 C           19.9462     3.3086    19.7480 C             1 RES     
    1731 H           19.3573     5.2328    18.9758 H             1 RES     
    1732 H           18.3280     4.6262    20.2874 H             1 RES     
    1733 H           18.1929     3.9318    18.6603 H             1 RES     
    1734 H           20.6469     3.7127    20.4848 H             1 RES     
    1735 H           20.5118     3.0183    18.8577 H             1 RES     
    1736 H           19.4825     2.4117    20.1693 H             1 RES     
    1737 C           20.0571    33.5094    21.0689 C             1 RES     
    1738 C           20.0457    33.2633    19.5770 C             1 RES     
    1739 H           19.0782    33.8613    21.4078 H             1 RES     
    1740 H           20.8038    34.2659    21.3279 H             1 RES     
    1741 H           20.2980    32.5886    21.6084 H             1 RES     
    1742 H           19.8048    34.1841    19.0374 H             1 RES     
    1743 H           19.2990    32.5068    19.3180 H             1 RES     
    1744 H           21.0246    32.9114    19.2381 H             1 RES     
    1745 C           33.4887     8.1604    19.5200 C             1 RES     
    1746 C           33.9905     6.8178    19.0386 C             1 RES     
    1747 H           32.7913     8.0337    20.3535 H             1 RES     
    1748 H           32.9702     8.6884    18.7142 H             1 RES     
    1749 H           34.3219     8.7830    19.8596 H             1 RES     
    1750 H           33.1574     6.1953    18.6991 H             1 RES     
    1751 H           34.5090     6.2899    19.8445 H             1 RES     
    1752 H           34.6879     6.9445    18.2052 H             1 RES     
    1753 C           11.3269     5.0410    21.8387 C             1 RES     
    1754 C           12.5327     5.9524    21.7943 C             1 RES     
    1755 H           11.4481     4.2811    22.6164 H             1 RES     
    1756 H           11.1932     4.5334    20.8788 H             1 RES     
    1757 H           10.4201     5.6137    22.0549 H             1 RES     
    1758 H           13.4395     5.3797    21.5781 H             1 RES     
    1759 H           12.6663     6.4600    22.7542 H             1 RES     
    1760 H           12.4115     6.7123    21.0166 H             1 RES     
    1761 C           36.0007    11.8570    21.9487 C             1 RES     
    1762 C           36.5915    13.0078    22.7316 C             1 RES     
    1763 H           34.9135    11.9577    21.8790 H             1 RES     
    1764 H           36.2280    10.9041    22.4358 H             1 RES     
    1765 H           36.4102    11.8319    20.9345 H             1 RES     
    1766 H           36.1821    13.0330    23.7458 H             1 RES     
    1767 H           36.3643    13.9608    22.2445 H             1 RES     
    1768 H           37.6787    12.9072    22.8013 H             1 RES     
    1769 C           20.7069    51.4197    19.5448 C             1 RES     
    1770 C           22.1171    50.8814    19.6333 C             1 RES     
    1771 H           20.6198    52.1359    18.7223 H             1 RES     
    1772 H           20.4301    51.9267    20.4739 H             1 RES     
    1773 H           19.9955    50.6069    19.3707 H             1 RES     
    1774 H           22.8285    51.6942    19.8074 H             1 RES     
    1775 H           22.3939    50.3743    18.7042 H             1 RES     
    1776 H           22.2041    50.1652    20.4558 H             1 RES     
    1777 C            2.7485    51.5464    21.1140 C             1 RES     
    1778 C            2.1710    51.5933    19.7173 C             1 RES     
    1779 H            2.0029    51.8637    21.8490 H             1 RES     
    1780 H            3.6151    52.2095    21.1940 H             1 RES     
    1781 H            3.0680    50.5303    21.3638 H             1 RES     
    1782 H            1.8516    52.6094    19.4675 H             1 RES     
    1783 H            1.3045    50.9302    19.6373 H             1 RES     
    1784 H            2.9167    51.2760    18.9823 H             1 RES     
    1785 C           13.0919    42.8080    20.2380 C             1 RES     
    1786 C           13.4101    42.5267    21.6891 C             1 RES     
    1787 H           13.1969    41.8990    19.6383 H             1 RES     
    1788 H           13.7703    43.5663    19.8358 H             1 RES     
    1789 H           12.0660    43.1733    20.1333 H             1 RES     
    1790 H           14.4361    42.1614    21.7938 H             1 RES     
    1791 H           12.7317    41.7684    22.0913 H             1 RES     
    1792 H           13.3052    43.4357    22.2888 H             1 RES     
    1793 C           15.6605    36.8941    19.6693 C             1 RES     
    1794 C           15.6263    38.3121    19.1455 C             1 RES     
    1795 H           14.8424    36.7256    20.3760 H             1 RES     
    1796 H           16.6059    36.6970    20.1834 H             1 RES     
    1797 H           15.5591    36.1785    18.8480 H             1 RES     
    1798 H           15.7276    39.0278    19.9669 H             1 RES     
    1799 H           14.6808    38.5092    18.6315 H             1 RES     
    1800 H           16.4443    38.4806    18.4388 H             1 RES     
    1801 C           14.1786    31.9438    21.4024 C             1 RES     
    1802 C           15.3722    31.2153    21.9777 C             1 RES     
    1803 H           13.3143    31.8496    22.0665 H             1 RES     
    1804 H           13.9096    31.5298    20.4261 H             1 RES     
    1805 H           14.4018    33.0074    21.2761 H             1 RES     
    1806 H           15.1490    30.1517    22.1040 H             1 RES     
    1807 H           15.6412    31.6292    22.9540 H             1 RES     
    1808 H           16.2365    31.3094    21.3135 H             1 RES     
    1809 C           25.5436    16.1357    19.6775 C             1 RES     
    1810 C           26.1169    14.8408    19.1475 C             1 RES     
    1811 H           26.1193    16.4866    20.5392 H             1 RES     
    1812 H           24.5047    15.9963    19.9909 H             1 RES     
    1813 H           25.5698    16.9116    18.9066 H             1 RES     
    1814 H           26.0907    14.0649    19.9185 H             1 RES     
    1815 H           27.1558    14.9802    18.8342 H             1 RES     
    1816 H           25.5412    14.4899    18.2858 H             1 RES     
    1817 C           31.3970    32.0583    21.2783 C             1 RES     
    1818 C           30.7959    31.2124    22.3781 C             1 RES     
    1819 H           32.0262    31.4475    20.6241 H             1 RES     
    1820 H           32.0132    32.8572    21.7014 H             1 RES     
    1821 H           30.6099    32.5151    20.6711 H             1 RES     
    1822 H           31.5830    30.7556    22.9853 H             1 RES     
    1823 H           30.1796    30.4134    21.9550 H             1 RES     
    1824 H           30.1666    31.8231    23.0323 H             1 RES     
    1825 C           17.9536    46.6761    20.5927 C             1 RES     
    1826 C           18.3654    47.1027    21.9837 C             1 RES     
    1827 H           18.8262    46.3595    20.0137 H             1 RES     
    1828 H           17.4710    47.5035    20.0640 H             1 RES     
    1829 H           17.2495    45.8400    20.6398 H             1 RES     
    1830 H           19.0694    47.9388    21.9365 H             1 RES     
    1831 H           18.8479    46.2753    22.5124 H             1 RES     
    1832 H           17.4927    47.4193    22.5627 H             1 RES     
    1833 C           41.0303    46.4270    19.1586 C             1 RES     
    1834 C           41.3374    45.2666    20.0781 C             1 RES     
    1835 H           41.6598    46.3861    18.2647 H             1 RES     
    1836 H           41.2142    47.3786    19.6662 H             1 RES     
    1837 H           39.9828    46.4012    18.8439 H             1 RES     
    1838 H           42.3849    45.2924    20.3928 H             1 RES     
    1839 H           41.1535    44.3150    19.5705 H             1 RES     
    1840 H           40.7079    45.3075    20.9720 H             1 RES     
    1841 C            1.2079    26.9257    21.9654 C             1 RES     
    1842 C            1.5222    26.8607    20.4878 C             1 RES     
    1843 H            1.9625    26.3835    22.5430 H             1 RES     
    1844 H            0.2305    26.4790    22.1704 H             1 RES     
    1845 H            1.1912    27.9641    22.3095 H             1 RES     
    1846 H            1.5389    25.8223    20.1438 H             1 RES     
    1847 H            2.4996    27.3074    20.2828 H             1 RES     
    1848 H            0.7676    27.4029    19.9102 H             1 RES     
    1849 C            3.6199    36.4981    19.3685 C             1 RES     
    1850 C            5.0356    35.9945    19.5374 C             1 RES     
    1851 H            3.0327    36.3038    20.2710 H             1 RES     
    1852 H            3.1322    35.9987    18.5260 H             1 RES     
    1853 H            3.6153    37.5758    19.1798 H             1 RES     
    1854 H            5.0401    34.9168    19.7261 H             1 RES     
    1855 H            5.5232    36.4939    20.3799 H             1 RES     
    1856 H            5.6228    36.1887    18.6349 H             1 RES     
    1857 C           24.2736    30.6652    21.3936 C             1 RES     
    1858 C           25.4645    29.7335    21.3932 C             1 RES     
    1859 H           24.3839    31.4301    20.6192 H             1 RES     
    1860 H           24.1780    31.1662    22.3616 H             1 RES     
    1861 H           23.3511    30.1098    21.2005 H             1 RES     
    1862 H           26.3871    30.2889    21.5864 H             1 RES     
    1863 H           25.5602    29.2325    20.4253 H             1 RES     
    1864 H           25.3543    28.9686    22.1676 H             1 RES     
    1865 C           39.3276     7.0876    19.7534 C             1 RES     
    1866 C           39.4529     7.3611    21.2352 C             1 RES     
    1867 H           40.0047     6.2826    19.4525 H             1 RES     
    1868 H           39.5774     7.9821    19.1750 H             1 RES     
    1869 H           38.3052     6.7896    19.5027 H             1 RES     
    1870 H           40.4753     7.6591    21.4859 H             1 RES     
    1871 H           39.2031     6.4666    21.8136 H             1 RES     
    1872 H           38.7758     8.1661    21.5361 H             1 RES     
    1873 C           23.9490    24.7494    19.8110 C             1 RES     
    1874 C           23.2073    23.8218    18.8752 C             1 RES     
    1875 H           25.0293    24.6649    19.6595 H             1 RES     
    1876 H           23.7269    24.5018    20.8533 H             1 RES     
    1877 H           23.6565    25.7886    19.6338 H             1 RES     
    1878 H           23.4998    22.7826    19.0524 H             1 RES     
    1879 H           23.4294    24.0694    17.8329 H             1 RES     
    1880 H           22.1271    23.9063    19.0267 H             1 RES     
    1881 C           36.2344    26.0161    19.6619 C             1 RES     
    1882 C           37.2576    27.0916    19.3746 C             1 RES     
    1883 H           36.4631    25.5100    20.6046 H             1 RES     
    1884 H           36.2272    25.2690    18.8627 H             1 RES     
    1885 H           35.2325    26.4492    19.7377 H             1 RES     
    1886 H           38.2595    26.6585    19.2988 H             1 RES     
    1887 H           37.2648    27.8387    20.1738 H             1 RES     
    1888 H           37.0289    27.5976    18.4319 H             1 RES     
    1889 C           23.6397     7.1282    21.7162 C             1 RES     
    1890 C           23.6045     7.2089    20.2067 C             1 RES     
    1891 H           24.6679     7.2085    22.0815 H             1 RES     
    1892 H           23.2255     6.1757    22.0599 H             1 RES     
    1893 H           23.0527     7.9388    22.1583 H             1 RES     
    1894 H           24.1915     6.3983    19.7647 H             1 RES     
    1895 H           24.0188     8.1614    19.8630 H             1 RES     
    1896 H           22.5763     7.1285    19.8415 H             1 RES     
    1897 C            1.7655    21.2844    20.7963 C             1 RES     
    1898 C            1.7712    21.1775    19.2881 C             1 RES     
    1899 H            1.3460    20.3787    21.2442 H             1 RES     
    1900 H            1.1632    22.1390    21.1187 H             1 RES     
    1901 H            2.7829    21.4171    21.1761 H             1 RES     
    1902 H            0.7538    21.0449    18.9083 H             1 RES     
    1903 H            2.3735    20.3230    18.9657 H             1 RES     
    1904 H            2.1908    22.0833    18.8402 H             1 RES     
    1905 C           14.3440    22.8079    19.9600 C             1 RES     
    1906 C           14.6341    24.2340    19.5498 C             1 RES     
    1907 H           14.8916    22.5512    20.8717 H             1 RES     
    1908 H           14.6440    22.1123    19.1706 H             1 RES     
    1909 H           13.2752    22.6726    20.1505 H             1 RES     
    1910 H           15.7030    24.3692    19.3593 H             1 RES     
    1911 H           14.3341    24.9296    20.3392 H             1 RES     
    1912 H           14.0865    24.4906    18.6381 H             1 RES     
    1913 C           32.3590    37.2155    21.5226 C             1 RES     
    1914 C           33.7280    37.8551    21.4652 C             1 RES     
    1915 H           32.2504    36.6211    22.4347 H             1 RES     
    1916 H           32.2061    36.5572    20.6621 H             1 RES     
    1917 H           31.5768    37.9804    21.5146 H             1 RES     
    1918 H           34.5102    37.0902    21.4732 H             1 RES     
    1919 H           33.8809    38.5133    22.3256 H             1 RES     
    1920 H           33.8366    38.4494    20.5531 H             1 RES     
@<TRIPOS>BOND
@<TRIPOS>SUBSTRUCTURE
       1 RES             1 RESIDUE    0 **** ROOT      0
